
Spectre (R) Circuit Simulator
Version 23.1.0.242.isr1 64bit -- 7 Sep 2023
Copyright (C) 1989-2023 Cadence Design Systems, Inc. All rights reserved worldwide. Cadence and Spectre are registered trademarks of Cadence Design Systems, Inc. All others are the property of their respective holders.

Includes RSA BSAFE(R) Cryptographic or Security Protocol Software from RSA Security, Inc.

User: sstatthoudakis   Host: torreyridge   HostID: 7F0100   PID: 18570
Memory  available: 91.0546 GB  physical: 135.0278 GB
Linux   : CentOS Linux release 7 (Core)
CPU Type: Intel(R) Xeon(R) Silver 4114 CPU @ 2.20GHz
All processors running at 2194.8 MHz
        Socket: Processors
        0:       0
        2:       1
        4:       2
        6:       3
        8:       4
        10:      5
        12:      6
        14:      7
        16:      8
        18:      9
        20:     10
        22:     11
        
System load averages (1min, 5min, 15min) : 60.3 %, 59.2 %, 48.6 %
This is a virtual machine


Simulating `nand_ff.scs' on torreyridge at 3:49:07 PM, Wed Oct 29, 2025 (process id: 18570).
Current working directory: /CASNFSHOME2/home/sstatthoudakis/Documents/spectre/Gates/NAND2/corners/corner_pin2/gate_load
Command line:
     \
        /CASNFSHOME/home/edatools/cadence/2023-24/RHELx86/SPECTRE_23.10.242/tools.lnx86/bin/spectre  \
        -64 nand_ff.scs

Licensing Information:
[15:49:07.231889] Configured Lic search path (22.01-s002): 5280@10.64.82.10

Licensing Information:
[15:49:07.358987] Periodic Lic check successful

Loading /CASNFSHOME/home/edatools/cadence/2023-24/RHELx86/SPECTRE_23.10.242/tools.lnx86/cmi/lib/64bit/5.0/libinfineon_sh.so ...
Loading /CASNFSHOME/home/edatools/cadence/2023-24/RHELx86/SPECTRE_23.10.242/tools.lnx86/cmi/lib/64bit/5.0/libphilips_I_sh.so ...
Loading /CASNFSHOME/home/edatools/cadence/2023-24/RHELx86/SPECTRE_23.10.242/tools.lnx86/cmi/lib/64bit/5.0/libphilips_sh.so ...
Loading /CASNFSHOME/home/edatools/cadence/2023-24/RHELx86/SPECTRE_23.10.242/tools.lnx86/cmi/lib/64bit/5.0/libsparam_sh.so ...
Loading /CASNFSHOME/home/edatools/cadence/2023-24/RHELx86/SPECTRE_23.10.242/tools.lnx86/cmi/lib/64bit/5.0/libstmodels_sh.so ...
Reading file:  /CASNFSHOME2/home/sstatthoudakis/Documents/spectre/Gates/NAND2/corners/corner_pin2/gate_load/nand_ff.scs
Reading file:  /CASNFSHOME/home/edatools/cadence/2023-24/RHELx86/SPECTRE_23.10.242/tools.lnx86/spectre/etc/configs/spectre.cfg
Reading file:  /CASNFSHOME/home/tsaikaterini/IHP/IHP_Generation_files/130ng/ihp013ng_include_all_fast.scs
Reading file:  /CASNFSHOME/home/tsaikaterini/IHP/IHP_Generation_files/130ng/SG13S_618_rev1.12.15/tech/SG13_HBT/VBIC/spectre/SG13_cornerBIP.scs
Reading file:  /CASNFSHOME/home/tsaikaterini/IHP/IHP_Generation_files/130ng/SG13S_618_rev1.12.15/tech/SG13_HBT/VBIC/spectre/SG13_hbt_mm.scs
Reading file:  /CASNFSHOME/home/tsaikaterini/IHP/IHP_Generation_files/130ng/SG13S_618_rev1.12.15/tech/SG13_HBT/VBIC/spectre/SG13_hbt.lib
Reading file:  /CASNFSHOME/home/tsaikaterini/IHP/IHP_Generation_files/130ng/SG13S_618_rev1.12.15/tech/SG13_HBT/VBIC/spectre/SG13_hbt_stat.scs
Reading file:  /CASNFSHOME/home/tsaikaterini/IHP/IHP_Generation_files/130ng/SG13S_618_rev1.12.15/tech/SG13_MOS/library/spectre/cornerMOSlv_psp.scs
Reading file:  /CASNFSHOME/home/tsaikaterini/IHP/IHP_Generation_files/130ng/SG13S_618_rev1.12.15/tech/SG13_MOS/library/spectre/sg13_moslv_psp_stat.scs
Reading file:  /CASNFSHOME/home/tsaikaterini/IHP/IHP_Generation_files/130ng/SG13S_618_rev1.12.15/tech/SG13_MOS/library/spectre/sg13_moslv_psp_mod.lib
Reading file:  /CASNFSHOME/home/tsaikaterini/IHP/IHP_Generation_files/130ng/SG13S_618_rev1.12.15/tech/SG13_MOS/library/spectre/sg13_moslv_psp_parm.scs
Reading file:  /CASNFSHOME/home/tsaikaterini/IHP/IHP_Generation_files/130ng/SG13S_618_rev1.12.15/tech/SG13_MOS/library/spectre/cornerMOShv_psp.scs
Reading file:  /CASNFSHOME/home/tsaikaterini/IHP/IHP_Generation_files/130ng/SG13S_618_rev1.12.15/tech/SG13_MOS/library/spectre/sg13_moshv_psp_stat.scs
Reading file:  /CASNFSHOME/home/tsaikaterini/IHP/IHP_Generation_files/130ng/SG13S_618_rev1.12.15/tech/SG13_MOS/library/spectre/sg13_moshv_psp_mod.lib
Reading file:  /CASNFSHOME/home/tsaikaterini/IHP/IHP_Generation_files/130ng/SG13S_618_rev1.12.15/tech/SG13_MOS/library/spectre/sg13_moshv_psp_parm.scs

Warning from spectre in `nmoselt', during circuit read-in.
    WARNING (SFE-2296): "/CASNFSHOME/home/tsaikaterini/IHP/IHP_Generation_files/130ng/SG13S_618_rev1.12.15/tech/SG13_MOS/library/spectre/sg13_moshv_psp_mod.lib" 79: The inline subckt definition `nmoselt' does not contain any inline components. The `inline' qualifier will therefore be ignored.

Reading file:  /CASNFSHOME/home/tsaikaterini/IHP/IHP_Generation_files/130ng/SG13S_618_rev1.12.15/tech/SG13_MOS/library/spectre/sg13_svaricaphv_mosvar_mod.lib
Reading file:  /CASNFSHOME/home/tsaikaterini/IHP/IHP_Generation_files/130ng/SG13S_618_rev1.12.15/tech/SG13_PASSIVES/spectre/SG13_cornerRES.scs
Reading file:  /CASNFSHOME/home/tsaikaterini/IHP/IHP_Generation_files/130ng/SG13S_618_rev1.12.15/tech/SG13_PASSIVES/spectre/SG13_res_mm.scs
Reading file:  /CASNFSHOME/home/tsaikaterini/IHP/IHP_Generation_files/130ng/SG13S_618_rev1.12.15/tech/SG13_PASSIVES/spectre/SG13_res_stat.scs
Reading file:  /CASNFSHOME/home/tsaikaterini/IHP/IHP_Generation_files/130ng/SG13S_618_rev1.12.15/tech/SG13_PASSIVES/spectre/SG13_res.lib
Reading file:  /CASNFSHOME/home/tsaikaterini/IHP/IHP_Generation_files/130ng/SG13S_618_rev1.12.15/tech/SG13_PASSIVES/spectre/SG13_cornerCAP.scs
Reading file:  /CASNFSHOME/home/tsaikaterini/IHP/IHP_Generation_files/130ng/SG13S_618_rev1.12.15/tech/SG13_PASSIVES/spectre/SG13_cap_mm.scs
Reading file:  /CASNFSHOME/home/tsaikaterini/IHP/IHP_Generation_files/130ng/SG13S_618_rev1.12.15/tech/SG13_PASSIVES/spectre/SG13_cap_stat.scs
Reading file:  /CASNFSHOME/home/tsaikaterini/IHP/IHP_Generation_files/130ng/SG13S_618_rev1.12.15/tech/SG13_PASSIVES/spectre/SG13_cap.lib
Reading file:  /CASNFSHOME/home/tsaikaterini/IHP/IHP_Generation_files/130ng/SG13S_618_rev1.12.15/tech/SG13_PASSIVES/spectre/Ind_unit_4PI
Reading file:  /CASNFSHOME/home/tsaikaterini/IHP/IHP_Generation_files/130ng/SG13S_618_rev1.12.15/tech/SG13_PASSIVES/spectre/Parameters_define_4PI
Reading file:  /CASNFSHOME/home/tsaikaterini/IHP/IHP_Generation_files/130ng/SG13S_618_rev1.12.15/tech/SG13_PASSIVES/spectre/sg13s_dschottky_nbl1_mod.lib
Reading file:  /CASNFSHOME/home/tsaikaterini/IHP/IHP_Generation_files/130ng/SG13S_618_rev1.12.15/tech/SG13_PASSIVES/spectre/SG13_diodes.lib
Reading file:  /CASNFSHOME/home/tsaikaterini/IHP/IHP_Generation_files/130ng/SG13S_618_rev1.12.15/tech/SG13_MOS/library/spectre/CheckMOSstat.scs
Reading file:  /CASNFSHOME/home/tsaikaterini/IHP/IHP_Generation_files/130ng/SG13S_618_rev1.12.15/tech/SG13_MOS/library/spectre/CheckMOSdyn.scs
Reading file:  /CASNFSHOME/home/tsaikaterini/IHP/IHP_Generation_files/130ng/SG13S_618_rev1.12.15/tech/SG13_ESD/spectre/SG13_esd.lib
Reading file:  /CASNFSHOME/home/tsaikaterini/IHP/IHP_Generation_files/130ng/SG13S_618_rev1.12.15/tech/SG13_PASSIVES/spectre/SG13_cornerTSV.scs
Reading file:  /CASNFSHOME/home/tsaikaterini/IHP/IHP_Generation_files/130ng/SG13S_618_rev1.12.15/tech/SG13_PASSIVES/spectre/SG13_paramsTSV.scs
Reading file:  /CASNFSHOME/home/tsaikaterini/IHP/IHP_Generation_files/130ng/SG13S_618_rev1.12.15/tech/SG13_PASSIVES/spectre/SG13_tsv.lib
Reading file:  /CASNFSHOME/home/tsaikaterini/IHP/IHP_Generation_files/130ng/ixc013ng_stdcell_rc.scs
Time for NDB Parsing: CPU = 543.29 ms, elapsed = 684.027 ms.
Time accumulated: CPU = 635.57 ms, elapsed = 684.03 ms.
Peak resident memory used = 125 Mbytes.


Warning from spectre in `NA2JIX0':`ncell1', during hierarchy flattening.
    WARNING (SFE-103): "/CASNFSHOME/home/tsaikaterini/IHP/IHP_Generation_files/130ng/ixc013ng_stdcell_rc.scs" 26304: Subcircuit parameter `nrd', defined for subcircuit `sg13_lv_pmos', has been ignored because it is invalid. Check the parameters that are defined for the instantiated subcircuit and rerun the simulation.
    WARNING (SFE-103): "/CASNFSHOME/home/tsaikaterini/IHP/IHP_Generation_files/130ng/ixc013ng_stdcell_rc.scs" 26304: Subcircuit parameter `nrs', defined for subcircuit `sg13_lv_pmos', has been ignored because it is invalid. Check the parameters that are defined for the instantiated subcircuit and rerun the simulation.
    WARNING (SFE-103): "/CASNFSHOME/home/tsaikaterini/IHP/IHP_Generation_files/130ng/ixc013ng_stdcell_rc.scs" 26307: Subcircuit parameter `nrd', defined for subcircuit `sg13_lv_pmos', has been ignored because it is invalid. Check the parameters that are defined for the instantiated subcircuit and rerun the simulation.
    WARNING (SFE-103): "/CASNFSHOME/home/tsaikaterini/IHP/IHP_Generation_files/130ng/ixc013ng_stdcell_rc.scs" 26307: Subcircuit parameter `nrs', defined for subcircuit `sg13_lv_pmos', has been ignored because it is invalid. Check the parameters that are defined for the instantiated subcircuit and rerun the simulation.
    WARNING (SFE-103): "/CASNFSHOME/home/tsaikaterini/IHP/IHP_Generation_files/130ng/ixc013ng_stdcell_rc.scs" 26310: Subcircuit parameter `nrd', defined for subcircuit `sg13_lv_nmos', has been ignored because it is invalid. Check the parameters that are defined for the instantiated subcircuit and rerun the simulation.
        Further occurrences of this warning will be suppressed.

Time for Elaboration: CPU = 40.023 ms, elapsed = 44.1279 ms.
Time accumulated: CPU = 675.817 ms, elapsed = 730.347 ms.
Peak resident memory used = 134 Mbytes.

Loading /CASNFSHOME/home/edatools/cadence/2023-24/RHELx86/SPECTRE_23.10.242/tools.lnx86/mdl/lib/64bit/libSpectreEH_sh.so ...

Time for EDB Visiting: CPU = 28.302 ms, elapsed = 33.6759 ms.
Time accumulated: CPU = 704.365 ms, elapsed = 765.826 ms.
Peak resident memory used = 140 Mbytes.


Warning from spectre during initial setup.
    WARNING (SPECTRE-17237): Assert violations will be written to the sqldb file because the 'checklimitdest' option has not been specified.
    WARNING (SPECTRE-17607): Assert `check_sg13s_lv_nmosHV_vgs' is ignored because it contains an expression which is not supported by native evaluator. 
    WARNING (SPECTRE-17607): Assert `check_sg13s_lv_nmosHV_vgd' is ignored because it contains an expression which is not supported by native evaluator. 
    WARNING (SPECTRE-17607): Assert `check_sg13s_lv_nmosHV_vds' is ignored because it contains an expression which is not supported by native evaluator. 
    WARNING (SPECTRE-17607): Assert `check_sg13s_lv_nmosHV_vdb' is ignored because it contains an expression which is not supported by native evaluator. 
    WARNING (SPECTRE-17607): Assert `check_sg13s_lv_nmosHV_vgb' is ignored because it contains an expression which is not supported by native evaluator. 
        Further occurrences of this warning will be suppressed.


Global user options:
               temp = 0

Scoped user options:

Circuit inventory:
              nodes 683
          capacitor 760   
          pspnqs103 160   
           resistor 600   
            vsource 3     

Analysis and control statement inventory:
         altergroup 14    
               tran 15    

Output statements:
             .probe 0     
           .measure 3     
               save 0     

Design checks inventory:
          paramtest 640   
             assert 40    


Notice from spectre.
    322 warnings suppressed.

Time for parsing: CPU = 27.947 ms, elapsed = 541.386 ms.
Time accumulated: CPU = 732.55 ms, elapsed = 1.32083 s.
Peak resident memory used = 144 Mbytes.

~~~~~~~~~~~~~~~~~~~~~~
Pre-Simulation Summary
~~~~~~~~~~~~~~~~~~~~~~
~~~~~~~~~~~~~~~~~~~~~~

Notice from spectre during transient analysis `transient1'.
    No checklimit analysis defined for asserts. A default checklimit analysis 'SpectreChecklimitAnal' has been created with all asserts enabled.


*****************************************************
Transient Analysis `transient1': time = (0 s -> 2 ns)
*****************************************************

Notice from spectre during IC analysis `timeSweep', during transient analysis `transient1'.
    GminDC = 1 pS is large enough to noticeably affect the DC solution.
        dV(nfanout4_10.ncell11.net15) = -3.09836 mV
        Use the `gmin_check' option to eliminate or expand this report.

DC simulation time: CPU = 24.252 ms, elapsed = 26.397 ms.

Notice from spectre during transient analysis `transient1'.
    No outputs were found. Loosening output filter criterion to `allpub'.


Opening the PSFXL file ./nand_ff.raw/transient1.tran.tran ...
Important parameter values:
    start = 0 s
    outputstart = 0 s
    stop = 2 ns
    step = 100 fs
    maxstep = 40 ps
    ic = all
    useprevic = no
    skipdc = no
    reltol = 1e-03
    abstol(V) = 1 uV
    abstol(I) = 1 pA
    temp = 0 C
    tnom = 27 C
    tempeffects = all
    errpreset = moderate
    method = traponly
    lteratio = 3.5
    relref = sigglobal
    cmin = 0 F
    gmin = 1 pS


Output and IC/nodeset summary:
                 probe  2       
                 save   3       (current)
                 save   683     (voltage)

......9......8......7......6......5......4......3......2......1......0
Number of accepted tran steps =             295

Maximum value achieved for any signal of each quantity: 
V: V(nfanout4_10.ncell13.2:Q) = 1.016 V
I: I(VVDD:p) = 136.5 uA
If your circuit contains signals of the same quantity that are vastly different in size (such as high voltage circuitry combined with low voltage control circuitry), you should consider specifying global option `bin_relref=yes'.

~~~~~~~~~~~~~~~~~~~~~~~~~~~~~~~~~
Post-Transient Simulation Summary
~~~~~~~~~~~~~~~~~~~~~~~~~~~~~~~~~
   -   To further speed up simulation, consider
          add ++aps on command line
~~~~~~~~~~~~~~~~~~~~~~~~~~~~~~~~~


During simulation, the CPU load for active processors is :
         0 (12.2 %)      1 (46.0 %)      2 (15.7 %)      3 (100.0 %)
         4 (100.0 %)     5 (49.4 %)      6 (19.5 %)      7 (100.0 %)
         8 (63.3 %)      9 (100.0 %)    10 (32.9 %)     11 (1.3 %)
        Total: 640.2%
Initial condition solution time: CPU = 24.361 ms, elapsed = 26.9229 ms.
Intrinsic tran analysis time:    CPU = 888.975 ms, elapsed = 1.0221 s.
Opening measure  file:  /CASNFSHOME2/home/sstatthoudakis/Documents/spectre/Gates/NAND2/corners/corner_pin2/gate_load/nand_ff.measure
Opening mt file:  /CASNFSHOME2/home/sstatthoudakis/Documents/spectre/Gates/NAND2/corners/corner_pin2/gate_load/nand_ff.mt0
Total time required for tran analysis `transient1': CPU = 992.263 ms, elapsed = 1.37378 s, util. = 72.2%.
Time accumulated: CPU = 1.74792 s, elapsed = 2.87606 s.
Peak resident memory used = 162 Mbytes.


*************************
Alter Group `altergroup1'
*************************
Time for altergroup1: CPU = 19.34 ms, elapsed = 19.6998 ms.
Time accumulated: CPU = 1.76737 s, elapsed = 2.89763 s.
Peak resident memory used = 162 Mbytes.


*****************************************************
Transient Analysis `transient2': time = (0 s -> 2 ns)
*****************************************************
DC simulation time: CPU = 22.906 ms, elapsed = 22.9239 ms.

Notice from spectre during transient analysis `transient2'.
    No outputs were found. Loosening output filter criterion to `allpub'.


Opening the PSFXL file ./nand_ff.raw/transient2.tran.tran ...
Important parameter values:
    start = 0 s
    outputstart = 0 s
    stop = 2 ns
    step = 100 fs
    maxstep = 40 ps
    ic = all
    useprevic = no
    skipdc = no
    reltol = 1e-03
    abstol(V) = 1 uV
    abstol(I) = 1 pA
    temp = 50 C
    tnom = 27 C
    tempeffects = all
    errpreset = moderate
    method = traponly
    lteratio = 3.5
    relref = sigglobal
    cmin = 0 F
    gmin = 1 pS


Output and IC/nodeset summary:
                 probe  2       
                 save   3       (current)
                 save   683     (voltage)

......9......8......7......6......5......4......3......2......1......0
Number of accepted tran steps =             279

Maximum value achieved for any signal of each quantity: 
V: V(nfanout4_10.ncell13.2:Q) = 1.003 V
I: I(VVDD:p) = 134.3 uA
If your circuit contains signals of the same quantity that are vastly different in size (such as high voltage circuitry combined with low voltage control circuitry), you should consider specifying global option `bin_relref=yes'.

~~~~~~~~~~~~~~~~~~~~~~~~~~~~~~~~~
Post-Transient Simulation Summary
~~~~~~~~~~~~~~~~~~~~~~~~~~~~~~~~~
   -   To further speed up simulation, consider
          add ++aps on command line
~~~~~~~~~~~~~~~~~~~~~~~~~~~~~~~~~


During simulation, the CPU load for active processors is :
         0 (12.0 %)      1 (53.9 %)      2 (13.4 %)      3 (100.0 %)
         4 (100.0 %)     5 (32.2 %)      6 (16.5 %)      7 (100.0 %)
         8 (75.6 %)      9 (100.0 %)    10 (20.6 %)     11 (2.1 %)
        Total: 626.3%
Initial condition solution time: CPU = 23.024 ms, elapsed = 23.7741 ms.
Intrinsic tran analysis time:    CPU = 810.628 ms, elapsed = 915.748 ms.
Opening mt file:  /CASNFSHOME2/home/sstatthoudakis/Documents/spectre/Gates/NAND2/corners/corner_pin2/gate_load/nand_ff.mt1
Total time required for tran analysis `transient2': CPU = 841.98 ms, elapsed = 1.00718 s, util. = 83.6%.
Time accumulated: CPU = 2.6254 s, elapsed = 4.03681 s.
Peak resident memory used = 163 Mbytes.


*************************
Alter Group `altergroup2'
*************************
Time for altergroup2: CPU = 18.142 ms, elapsed = 18.8529 ms.
Time accumulated: CPU = 2.64365 s, elapsed = 4.05715 s.
Peak resident memory used = 163 Mbytes.


*****************************************************
Transient Analysis `transient3': time = (0 s -> 2 ns)
*****************************************************
DC simulation time: CPU = 20.196 ms, elapsed = 20.2 ms.

Notice from spectre during transient analysis `transient3'.
    No outputs were found. Loosening output filter criterion to `allpub'.


Opening the PSFXL file ./nand_ff.raw/transient3.tran.tran ...
Important parameter values:
    start = 0 s
    outputstart = 0 s
    stop = 2 ns
    step = 100 fs
    maxstep = 40 ps
    ic = all
    useprevic = no
    skipdc = no
    reltol = 1e-03
    abstol(V) = 1 uV
    abstol(I) = 1 pA
    temp = 125 C
    tnom = 27 C
    tempeffects = all
    errpreset = moderate
    method = traponly
    lteratio = 3.5
    relref = sigglobal
    cmin = 0 F
    gmin = 1 pS


Output and IC/nodeset summary:
                 probe  2       
                 save   3       (current)
                 save   683     (voltage)

......9......8......7......6......5......4......3......2......1......0
Number of accepted tran steps =             259

Maximum value achieved for any signal of each quantity: 
V: V(nfanout4_1.ncell12.2:Q) = 991.4 mV
I: I(VVDD:p) = 132.9 uA
If your circuit contains signals of the same quantity that are vastly different in size (such as high voltage circuitry combined with low voltage control circuitry), you should consider specifying global option `bin_relref=yes'.

~~~~~~~~~~~~~~~~~~~~~~~~~~~~~~~~~
Post-Transient Simulation Summary
~~~~~~~~~~~~~~~~~~~~~~~~~~~~~~~~~
   -   To further speed up simulation, consider
          add ++aps on command line
~~~~~~~~~~~~~~~~~~~~~~~~~~~~~~~~~


During simulation, the CPU load for active processors is :
         0 (10.6 %)      1 (41.4 %)      2 (24.6 %)      3 (100.0 %)
         4 (100.0 %)     5 (30.0 %)      6 (12.4 %)      7 (100.0 %)
         8 (81.9 %)      9 (100.0 %)    10 (15.5 %)     11 (2.3 %)
        Total: 618.8%
Initial condition solution time: CPU = 20.309 ms, elapsed = 20.9041 ms.
Intrinsic tran analysis time:    CPU = 814.065 ms, elapsed = 1.07118 s.
Opening mt file:  /CASNFSHOME2/home/sstatthoudakis/Documents/spectre/Gates/NAND2/corners/corner_pin2/gate_load/nand_ff.mt2
Total time required for tran analysis `transient3': CPU = 842.408 ms, elapsed = 1.14789 s, util. = 73.4%.
Time accumulated: CPU = 3.50243 s, elapsed = 5.35611 s.
Peak resident memory used = 164 Mbytes.


*************************
Alter Group `altergroup3'
*************************
Time for altergroup3: CPU = 19.427 ms, elapsed = 19.896 ms.
Time accumulated: CPU = 3.52197 s, elapsed = 5.37749 s.
Peak resident memory used = 164 Mbytes.


*****************************************************
Transient Analysis `transient4': time = (0 s -> 2 ns)
*****************************************************

Notice from spectre during IC analysis `timeSweep_cloned_3', during transient analysis `transient4'.
    GminDC = 1 pS is large enough to noticeably affect the DC solution.
        dV(nfanout4_10.ncell11.net15) = -3.05511 mV
        Use the `gmin_check' option to eliminate or expand this report.

DC simulation time: CPU = 24.758 ms, elapsed = 26.901 ms.

Notice from spectre during transient analysis `transient4'.
    No outputs were found. Loosening output filter criterion to `allpub'.


Opening the PSFXL file ./nand_ff.raw/transient4.tran.tran ...
Important parameter values:
    start = 0 s
    outputstart = 0 s
    stop = 2 ns
    step = 100 fs
    maxstep = 40 ps
    ic = all
    useprevic = no
    skipdc = no
    reltol = 1e-03
    abstol(V) = 1 uV
    abstol(I) = 1 pA
    temp = 0 C
    tnom = 27 C
    tempeffects = all
    errpreset = moderate
    method = traponly
    lteratio = 3.5
    relref = sigglobal
    cmin = 0 F
    gmin = 1 pS


Output and IC/nodeset summary:
                 probe  2       
                 save   3       (current)
                 save   683     (voltage)

......9......8......7......6......5......4......3......2......1......0
Number of accepted tran steps =             320

Maximum value achieved for any signal of each quantity: 
V: V(nfanout4_10.ncell13.2:Q) = 1.106 V
I: I(VGND:p) = 180.7 uA
If your circuit contains signals of the same quantity that are vastly different in size (such as high voltage circuitry combined with low voltage control circuitry), you should consider specifying global option `bin_relref=yes'.

~~~~~~~~~~~~~~~~~~~~~~~~~~~~~~~~~
Post-Transient Simulation Summary
~~~~~~~~~~~~~~~~~~~~~~~~~~~~~~~~~
   -   To further speed up simulation, consider
          add ++aps on command line
~~~~~~~~~~~~~~~~~~~~~~~~~~~~~~~~~


During simulation, the CPU load for active processors is :
         0 (11.4 %)      1 (34.1 %)      2 (28.0 %)      3 (100.0 %)
         4 (100.0 %)     5 (32.0 %)      6 (10.1 %)      7 (100.0 %)
         8 (85.4 %)      9 (100.0 %)    10 (12.6 %)     11 (2.8 %)
        Total: 616.3%
Initial condition solution time: CPU = 24.828 ms, elapsed = 27.343 ms.
Intrinsic tran analysis time:    CPU = 975.926 ms, elapsed = 1.05294 s.
Opening mt file:  /CASNFSHOME2/home/sstatthoudakis/Documents/spectre/Gates/NAND2/corners/corner_pin2/gate_load/nand_ff.mt3
Total time required for tran analysis `transient4': CPU = 1.00934 s, elapsed = 1.13253 s, util. = 89.1%.
Time accumulated: CPU = 4.55078 s, elapsed = 6.61948 s.
Peak resident memory used = 164 Mbytes.


*************************
Alter Group `altergroup4'
*************************
Time for altergroup4: CPU = 17.854 ms, elapsed = 18.8332 ms.
Time accumulated: CPU = 4.56876 s, elapsed = 6.63933 s.
Peak resident memory used = 164 Mbytes.


*****************************************************
Transient Analysis `transient5': time = (0 s -> 2 ns)
*****************************************************
DC simulation time: CPU = 22.959 ms, elapsed = 22.9809 ms.

Notice from spectre during transient analysis `transient5'.
    No outputs were found. Loosening output filter criterion to `allpub'.


Opening the PSFXL file ./nand_ff.raw/transient5.tran.tran ...
Important parameter values:
    start = 0 s
    outputstart = 0 s
    stop = 2 ns
    step = 100 fs
    maxstep = 40 ps
    ic = all
    useprevic = no
    skipdc = no
    reltol = 1e-03
    abstol(V) = 1 uV
    abstol(I) = 1 pA
    temp = 50 C
    tnom = 27 C
    tempeffects = all
    errpreset = moderate
    method = traponly
    lteratio = 3.5
    relref = sigglobal
    cmin = 0 F
    gmin = 1 pS


Output and IC/nodeset summary:
                 probe  2       
                 save   3       (current)
                 save   683     (voltage)

......9......8......7......6......5......4......3......2......1......0
Number of accepted tran steps =             302

Maximum value achieved for any signal of each quantity: 
V: V(nfanout4_1.ncell13.2:Q) = 1.097 V
I: I(VVDD:p) = 173.7 uA
If your circuit contains signals of the same quantity that are vastly different in size (such as high voltage circuitry combined with low voltage control circuitry), you should consider specifying global option `bin_relref=yes'.

~~~~~~~~~~~~~~~~~~~~~~~~~~~~~~~~~
Post-Transient Simulation Summary
~~~~~~~~~~~~~~~~~~~~~~~~~~~~~~~~~
   -   To further speed up simulation, consider
          add ++aps on command line
~~~~~~~~~~~~~~~~~~~~~~~~~~~~~~~~~


During simulation, the CPU load for active processors is :
         0 (9.8 %)       1 (29.8 %)      2 (36.2 %)      3 (100.0 %)
         4 (100.0 %)     5 (30.4 %)      6 (11.3 %)      7 (100.0 %)
         8 (87.7 %)      9 (100.0 %)    10 (10.6 %)     11 (3.0 %)
        Total: 618.9%
Initial condition solution time: CPU = 23.081 ms, elapsed = 23.772 ms.
Intrinsic tran analysis time:    CPU = 888.857 ms, elapsed = 958.13 ms.
Opening mt file:  /CASNFSHOME2/home/sstatthoudakis/Documents/spectre/Gates/NAND2/corners/corner_pin2/gate_load/nand_ff.mt4
Total time required for tran analysis `transient5': CPU = 919.991 ms, elapsed = 1.03528 s, util. = 88.9%.
Time accumulated: CPU = 5.50689 s, elapsed = 7.78712 s.
Peak resident memory used = 164 Mbytes.


*************************
Alter Group `altergroup5'
*************************
Time for altergroup5: CPU = 18.309 ms, elapsed = 18.6331 ms.
Time accumulated: CPU = 5.52532 s, elapsed = 7.80696 s.
Peak resident memory used = 164 Mbytes.


*****************************************************
Transient Analysis `transient6': time = (0 s -> 2 ns)
*****************************************************
DC simulation time: CPU = 21.813 ms, elapsed = 21.817 ms.

Notice from spectre during transient analysis `transient6'.
    No outputs were found. Loosening output filter criterion to `allpub'.


Opening the PSFXL file ./nand_ff.raw/transient6.tran.tran ...
Important parameter values:
    start = 0 s
    outputstart = 0 s
    stop = 2 ns
    step = 100 fs
    maxstep = 40 ps
    ic = all
    useprevic = no
    skipdc = no
    reltol = 1e-03
    abstol(V) = 1 uV
    abstol(I) = 1 pA
    temp = 125 C
    tnom = 27 C
    tempeffects = all
    errpreset = moderate
    method = traponly
    lteratio = 3.5
    relref = sigglobal
    cmin = 0 F
    gmin = 1 pS


Output and IC/nodeset summary:
                 probe  2       
                 save   3       (current)
                 save   683     (voltage)

......9......8......7......6......5......4......3......2......1......0
Number of accepted tran steps =             278

Maximum value achieved for any signal of each quantity: 
V: V(nfanout4_1.ncell12.2:Q) = 1.089 V
I: I(VGND:p) = 169.1 uA
If your circuit contains signals of the same quantity that are vastly different in size (such as high voltage circuitry combined with low voltage control circuitry), you should consider specifying global option `bin_relref=yes'.

~~~~~~~~~~~~~~~~~~~~~~~~~~~~~~~~~
Post-Transient Simulation Summary
~~~~~~~~~~~~~~~~~~~~~~~~~~~~~~~~~
   -   To further speed up simulation, consider
          add ++aps on command line
~~~~~~~~~~~~~~~~~~~~~~~~~~~~~~~~~


During simulation, the CPU load for active processors is :
         0 (9.2 %)       1 (28.1 %)      2 (41.8 %)      3 (100.0 %)
         4 (100.0 %)     5 (28.4 %)      6 (10.5 %)      7 (100.0 %)
         8 (89.2 %)      9 (100.0 %)    10 (9.4 %)      11 (4.5 %)
        Total: 621.2%
Initial condition solution time: CPU = 21.926 ms, elapsed = 22.449 ms.
Intrinsic tran analysis time:    CPU = 812.651 ms, elapsed = 917.653 ms.
Opening mt file:  /CASNFSHOME2/home/sstatthoudakis/Documents/spectre/Gates/NAND2/corners/corner_pin2/gate_load/nand_ff.mt5
Total time required for tran analysis `transient6': CPU = 843.735 ms, elapsed = 962.751 ms, util. = 87.6%.
Time accumulated: CPU = 6.38812 s, elapsed = 8.89121 s.
Peak resident memory used = 164 Mbytes.


*************************
Alter Group `altergroup6'
*************************
Time for altergroup6: CPU = 19.15 ms, elapsed = 19.8271 ms.
Time accumulated: CPU = 6.4074 s, elapsed = 8.91282 s.
Peak resident memory used = 164 Mbytes.


*****************************************************
Transient Analysis `transient7': time = (0 s -> 2 ns)
*****************************************************

Notice from spectre during IC analysis `timeSweep_cloned_6', during transient analysis `transient7'.
    GminDC = 1 pS is large enough to noticeably affect the DC solution.
        dV(nfanout4_10.ncell11.net15) = -2.9966 mV
        Use the `gmin_check' option to eliminate or expand this report.

DC simulation time: CPU = 25.943 ms, elapsed = 27.7731 ms.

Notice from spectre during transient analysis `transient7'.
    No outputs were found. Loosening output filter criterion to `allpub'.


Opening the PSFXL file ./nand_ff.raw/transient7.tran.tran ...
Important parameter values:
    start = 0 s
    outputstart = 0 s
    stop = 2 ns
    step = 100 fs
    maxstep = 40 ps
    ic = all
    useprevic = no
    skipdc = no
    reltol = 1e-03
    abstol(V) = 1 uV
    abstol(I) = 1 pA
    temp = 0 C
    tnom = 27 C
    tempeffects = all
    errpreset = moderate
    method = traponly
    lteratio = 3.5
    relref = sigglobal
    cmin = 0 F
    gmin = 1 pS


Output and IC/nodeset summary:
                 probe  2       
                 save   3       (current)
                 save   683     (voltage)

......9......8......7......6......5......4......3......2......1......0
Number of accepted tran steps =             332

Maximum value achieved for any signal of each quantity: 
V: V(nfanout4_10.ncell12.2:Q) = 1.2 V
I: I(VVDD:p) = 231 uA
If your circuit contains signals of the same quantity that are vastly different in size (such as high voltage circuitry combined with low voltage control circuitry), you should consider specifying global option `bin_relref=yes'.

~~~~~~~~~~~~~~~~~~~~~~~~~~~~~~~~~
Post-Transient Simulation Summary
~~~~~~~~~~~~~~~~~~~~~~~~~~~~~~~~~
   -   To further speed up simulation, consider
          add ++aps on command line
~~~~~~~~~~~~~~~~~~~~~~~~~~~~~~~~~


During simulation, the CPU load for active processors is :
         0 (8.4 %)       1 (26.2 %)      2 (47.0 %)      3 (100.0 %)
         4 (100.0 %)     5 (26.7 %)      6 (9.2 %)       7 (100.0 %)
         8 (90.6 %)      9 (100.0 %)    10 (8.3 %)      11 (4.2 %)
        Total: 620.6%
Initial condition solution time: CPU = 26.017 ms, elapsed = 28.0921 ms.
Intrinsic tran analysis time:    CPU = 970.898 ms, elapsed = 1.0573 s.
Opening mt file:  /CASNFSHOME2/home/sstatthoudakis/Documents/spectre/Gates/NAND2/corners/corner_pin2/gate_load/nand_ff.mt6
Total time required for tran analysis `transient7': CPU = 1.0052 s, elapsed = 1.14568 s, util. = 87.7%.
Time accumulated: CPU = 7.43447 s, elapsed = 10.2394 s.
Peak resident memory used = 164 Mbytes.


*************************
Alter Group `altergroup7'
*************************
Time for altergroup7: CPU = 20.58 ms, elapsed = 20.8659 ms.
Time accumulated: CPU = 7.45517 s, elapsed = 10.2613 s.
Peak resident memory used = 164 Mbytes.


*****************************************************
Transient Analysis `transient8': time = (0 s -> 2 ns)
*****************************************************
DC simulation time: CPU = 23.431 ms, elapsed = 23.4339 ms.

Notice from spectre during transient analysis `transient8'.
    No outputs were found. Loosening output filter criterion to `allpub'.


Opening the PSFXL file ./nand_ff.raw/transient8.tran.tran ...
Important parameter values:
    start = 0 s
    outputstart = 0 s
    stop = 2 ns
    step = 100 fs
    maxstep = 40 ps
    ic = all
    useprevic = no
    skipdc = no
    reltol = 1e-03
    abstol(V) = 1 uV
    abstol(I) = 1 pA
    temp = 50 C
    tnom = 27 C
    tempeffects = all
    errpreset = moderate
    method = traponly
    lteratio = 3.5
    relref = sigglobal
    cmin = 0 F
    gmin = 1 pS


Output and IC/nodeset summary:
                 probe  2       
                 save   3       (current)
                 save   683     (voltage)

......9......8......7......6......5......4......3......2......1......0
Number of accepted tran steps =             314

Maximum value achieved for any signal of each quantity: 
V: V(nfanout4_10.ncell13.2:Q) = 1.194 V
I: I(VVDD:p) = 220.7 uA
If your circuit contains signals of the same quantity that are vastly different in size (such as high voltage circuitry combined with low voltage control circuitry), you should consider specifying global option `bin_relref=yes'.

~~~~~~~~~~~~~~~~~~~~~~~~~~~~~~~~~
Post-Transient Simulation Summary
~~~~~~~~~~~~~~~~~~~~~~~~~~~~~~~~~
   -   To further speed up simulation, consider
          add ++aps on command line
~~~~~~~~~~~~~~~~~~~~~~~~~~~~~~~~~


During simulation, the CPU load for active processors is :
         0 (8.5 %)       1 (23.3 %)      2 (50.8 %)      3 (100.0 %)
         4 (100.0 %)     5 (27.7 %)      6 (8.3 %)       7 (100.0 %)
         8 (91.7 %)      9 (100.0 %)    10 (7.5 %)      11 (4.3 %)
        Total: 622.0%
Initial condition solution time: CPU = 23.538 ms, elapsed = 24.1759 ms.
Intrinsic tran analysis time:    CPU = 923.428 ms, elapsed = 995.054 ms.
Opening mt file:  /CASNFSHOME2/home/sstatthoudakis/Documents/spectre/Gates/NAND2/corners/corner_pin2/gate_load/nand_ff.mt7
Total time required for tran analysis `transient8': CPU = 956.893 ms, elapsed = 1.07438 s, util. = 89.1%.
Time accumulated: CPU = 8.43518 s, elapsed = 11.4977 s.
Peak resident memory used = 164 Mbytes.


*************************
Alter Group `altergroup8'
*************************
Time for altergroup8: CPU = 20.958 ms, elapsed = 21.4269 ms.
Time accumulated: CPU = 8.45627 s, elapsed = 11.5205 s.
Peak resident memory used = 164 Mbytes.


*****************************************************
Transient Analysis `transient9': time = (0 s -> 2 ns)
*****************************************************
DC simulation time: CPU = 24.419 ms, elapsed = 24.425 ms.

Notice from spectre during transient analysis `transient9'.
    No outputs were found. Loosening output filter criterion to `allpub'.


Opening the PSFXL file ./nand_ff.raw/transient9.tran.tran ...
Important parameter values:
    start = 0 s
    outputstart = 0 s
    stop = 2 ns
    step = 100 fs
    maxstep = 40 ps
    ic = all
    useprevic = no
    skipdc = no
    reltol = 1e-03
    abstol(V) = 1 uV
    abstol(I) = 1 pA
    temp = 125 C
    tnom = 27 C
    tempeffects = all
    errpreset = moderate
    method = traponly
    lteratio = 3.5
    relref = sigglobal
    cmin = 0 F
    gmin = 1 pS


Output and IC/nodeset summary:
                 probe  2       
                 save   3       (current)
                 save   683     (voltage)

......9......8......7......6......5......4......3......2......1......0
Number of accepted tran steps =             290

Maximum value achieved for any signal of each quantity: 
V: V(nfanout4_1.ncell13.2:Q) = 1.186 V
I: I(VGND:p) = 216.3 uA
If your circuit contains signals of the same quantity that are vastly different in size (such as high voltage circuitry combined with low voltage control circuitry), you should consider specifying global option `bin_relref=yes'.

~~~~~~~~~~~~~~~~~~~~~~~~~~~~~~~~~
Post-Transient Simulation Summary
~~~~~~~~~~~~~~~~~~~~~~~~~~~~~~~~~
   -   To further speed up simulation, consider
          add ++aps on command line
~~~~~~~~~~~~~~~~~~~~~~~~~~~~~~~~~


During simulation, the CPU load for active processors is :
         0 (8.5 %)       1 (21.6 %)      2 (53.2 %)      3 (100.0 %)
         4 (100.0 %)     5 (26.7 %)      6 (7.9 %)       7 (100.0 %)
         8 (92.5 %)      9 (100.0 %)    10 (7.0 %)      11 (4.9 %)
        Total: 622.4%
Initial condition solution time: CPU = 24.55 ms, elapsed = 25.44 ms.
Intrinsic tran analysis time:    CPU = 860.356 ms, elapsed = 998.108 ms.
Opening mt file:  /CASNFSHOME2/home/sstatthoudakis/Documents/spectre/Gates/NAND2/corners/corner_pin2/gate_load/nand_ff.mt8
Total time required for tran analysis `transient9': CPU = 893.998 ms, elapsed = 1.08781 s, util. = 82.2%.
Time accumulated: CPU = 9.36989 s, elapsed = 12.756 s.
Peak resident memory used = 164 Mbytes.


*************************
Alter Group `altergroup9'
*************************
Time for altergroup9: CPU = 20.848 ms, elapsed = 21.3649 ms.
Time accumulated: CPU = 9.3909 s, elapsed = 12.7788 s.
Peak resident memory used = 164 Mbytes.


******************************************************
Transient Analysis `transient10': time = (0 s -> 2 ns)
******************************************************

Notice from spectre during IC analysis `timeSweep_cloned_9', during transient analysis `transient10'.
    GminDC = 1 pS is large enough to noticeably affect the DC solution.
        dV(nfanout4_10.ncell11.net15) = -2.92629 mV
        Use the `gmin_check' option to eliminate or expand this report.

DC simulation time: CPU = 28.004 ms, elapsed = 29.4449 ms.

Notice from spectre during transient analysis `transient10'.
    No outputs were found. Loosening output filter criterion to `allpub'.


Opening the PSFXL file ./nand_ff.raw/transient10.tran.tran ...
Important parameter values:
    start = 0 s
    outputstart = 0 s
    stop = 2 ns
    step = 100 fs
    maxstep = 40 ps
    ic = all
    useprevic = no
    skipdc = no
    reltol = 1e-03
    abstol(V) = 1 uV
    abstol(I) = 1 pA
    temp = 0 C
    tnom = 27 C
    tempeffects = all
    errpreset = moderate
    method = traponly
    lteratio = 3.5
    relref = sigglobal
    cmin = 0 F
    gmin = 1 pS


Output and IC/nodeset summary:
                 probe  2       
                 save   3       (current)
                 save   683     (voltage)

......9......8......7......6......5..

Notice from spectre at time = 1.0891 ns during transient analysis `transient10'.
    Found trapezoidal ringing on node VGND:p.

......9......8......7......6......5...

Notice from spectre at time = 1.12205 ns during transient analysis `transient10'.
    Found trapezoidal ringing on node VGND:p.

......9......8......7......6......5....

Notice from spectre at time = 1.155 ns during transient analysis `transient10'.
    Found trapezoidal ringing on node VGND:p.

......9......8......7......6......5......4......3......2......1......0
Number of accepted tran steps =             345

Notice from spectre during transient analysis `transient10'.
    Trapezoidal ringing is detected during tran analysis.
        Please use method=trap for better results and performance.


Maximum value achieved for any signal of each quantity: 
V: V(nfanout4_10.ncell13.2:Q) = 1.296 V
I: I(VVDD:p) = 285.3 uA
If your circuit contains signals of the same quantity that are vastly different in size (such as high voltage circuitry combined with low voltage control circuitry), you should consider specifying global option `bin_relref=yes'.

~~~~~~~~~~~~~~~~~~~~~~~~~~~~~~~~~
Post-Transient Simulation Summary
~~~~~~~~~~~~~~~~~~~~~~~~~~~~~~~~~
   -   To further speed up simulation, consider
          add ++aps on command line
~~~~~~~~~~~~~~~~~~~~~~~~~~~~~~~~~


During simulation, the CPU load for active processors is :
         0 (15.8 %)      1 (20.3 %)      2 (48.2 %)      3 (100.0 %)
         4 (100.0 %)     5 (27.0 %)      6 (8.2 %)       7 (100.0 %)
         8 (93.3 %)      9 (100.0 %)    10 (6.4 %)      11 (4.5 %)
        Total: 623.7%
Initial condition solution time: CPU = 28.072 ms, elapsed = 29.7749 ms.
Intrinsic tran analysis time:    CPU = 1.04738 s, elapsed = 1.24085 s.
Opening mt file:  /CASNFSHOME2/home/sstatthoudakis/Documents/spectre/Gates/NAND2/corners/corner_pin2/gate_load/nand_ff.mt9
Total time required for tran analysis `transient10': CPU = 1.08416 s, elapsed = 1.29248 s, util. = 83.9%.
Time accumulated: CPU = 10.4966 s, elapsed = 14.2449 s.
Peak resident memory used = 164 Mbytes.


**************************
Alter Group `altergroup10'
**************************
Time for altergroup10: CPU = 17.905 ms, elapsed = 18.4622 ms.
Time accumulated: CPU = 10.5147 s, elapsed = 14.2653 s.
Peak resident memory used = 164 Mbytes.


******************************************************
Transient Analysis `transient11': time = (0 s -> 2 ns)
******************************************************
DC simulation time: CPU = 22.204 ms, elapsed = 22.2068 ms.

Notice from spectre during transient analysis `transient11'.
    No outputs were found. Loosening output filter criterion to `allpub'.


Opening the PSFXL file ./nand_ff.raw/transient11.tran.tran ...
Important parameter values:
    start = 0 s
    outputstart = 0 s
    stop = 2 ns
    step = 100 fs
    maxstep = 40 ps
    ic = all
    useprevic = no
    skipdc = no
    reltol = 1e-03
    abstol(V) = 1 uV
    abstol(I) = 1 pA
    temp = 50 C
    tnom = 27 C
    tempeffects = all
    errpreset = moderate
    method = traponly
    lteratio = 3.5
    relref = sigglobal
    cmin = 0 F
    gmin = 1 pS


Output and IC/nodeset summary:
                 probe  2       
                 save   3       (current)
                 save   683     (voltage)

......9......8......7......6......5....

Notice from spectre at time = 1.155 ns during transient analysis `transient11'.
    Found trapezoidal ringing on node VVDD:p.

......9......8......7......6......5......4......3......2......1......0
Number of accepted tran steps =             326

Notice from spectre during transient analysis `transient11'.
    Trapezoidal ringing is detected during tran analysis.
        Please use method=trap for better results and performance.


Maximum value achieved for any signal of each quantity: 
V: V(nfanout4_10.ncell13.2:Q) = 1.291 V
I: I(VVDD:p) = 274.6 uA
If your circuit contains signals of the same quantity that are vastly different in size (such as high voltage circuitry combined with low voltage control circuitry), you should consider specifying global option `bin_relref=yes'.

~~~~~~~~~~~~~~~~~~~~~~~~~~~~~~~~~
Post-Transient Simulation Summary
~~~~~~~~~~~~~~~~~~~~~~~~~~~~~~~~~
   -   To further speed up simulation, consider
          add ++aps on command line
~~~~~~~~~~~~~~~~~~~~~~~~~~~~~~~~~


During simulation, the CPU load for active processors is :
         0 (18.0 %)      1 (19.0 %)      2 (44.8 %)      3 (100.0 %)
         4 (100.0 %)     5 (29.4 %)      6 (7.5 %)       7 (100.0 %)
         8 (93.9 %)      9 (100.0 %)    10 (6.5 %)      11 (4.1 %)
        Total: 623.1%
Initial condition solution time: CPU = 22.314 ms, elapsed = 22.8009 ms.
Intrinsic tran analysis time:    CPU = 947.48 ms, elapsed = 1.08301 s.
Opening mt file:  /CASNFSHOME2/home/sstatthoudakis/Documents/spectre/Gates/NAND2/corners/corner_pin2/gate_load/nand_ff.mt10
Total time required for tran analysis `transient11': CPU = 977.988 ms, elapsed = 1.16039 s, util. = 84.3%.
Time accumulated: CPU = 11.5138 s, elapsed = 15.5316 s.
Peak resident memory used = 164 Mbytes.


**************************
Alter Group `altergroup11'
**************************
Time for altergroup11: CPU = 19.97 ms, elapsed = 20.4141 ms.
Time accumulated: CPU = 11.5339 s, elapsed = 15.5531 s.
Peak resident memory used = 164 Mbytes.


******************************************************
Transient Analysis `transient12': time = (0 s -> 2 ns)
******************************************************
DC simulation time: CPU = 30.888 ms, elapsed = 30.9491 ms.

Notice from spectre during transient analysis `transient12'.
    No outputs were found. Loosening output filter criterion to `allpub'.


Opening the PSFXL file ./nand_ff.raw/transient12.tran.tran ...
Important parameter values:
    start = 0 s
    outputstart = 0 s
    stop = 2 ns
    step = 100 fs
    maxstep = 40 ps
    ic = all
    useprevic = no
    skipdc = no
    reltol = 1e-03
    abstol(V) = 1 uV
    abstol(I) = 1 pA
    temp = 125 C
    tnom = 27 C
    tempeffects = all
    errpreset = moderate
    method = traponly
    lteratio = 3.5
    relref = sigglobal
    cmin = 0 F
    gmin = 1 pS


Output and IC/nodeset summary:
                 probe  2       
                 save   3       (current)
                 save   683     (voltage)

......9......8......7......6......5.....

Notice from spectre at time = 1.155 ns during transient analysis `transient12'.
    Found trapezoidal ringing on node VVDD:p.

......9......8......7......6......5......4......3......2......1......0
Number of accepted tran steps =             304

Notice from spectre during transient analysis `transient12'.
    Trapezoidal ringing is detected during tran analysis.
        Please use method=trap for better results and performance.


Maximum value achieved for any signal of each quantity: 
V: V(nfanout4_10.ncell13.2:Q) = 1.284 V
I: I(VVDD:p) = 269.4 uA
If your circuit contains signals of the same quantity that are vastly different in size (such as high voltage circuitry combined with low voltage control circuitry), you should consider specifying global option `bin_relref=yes'.

~~~~~~~~~~~~~~~~~~~~~~~~~~~~~~~~~
Post-Transient Simulation Summary
~~~~~~~~~~~~~~~~~~~~~~~~~~~~~~~~~
   -   To further speed up simulation, consider
          add ++aps on command line
~~~~~~~~~~~~~~~~~~~~~~~~~~~~~~~~~


During simulation, the CPU load for active processors is :
         0 (22.4 %)      1 (19.2 %)      2 (41.7 %)      3 (100.0 %)
         4 (100.0 %)     5 (28.2 %)      6 (7.1 %)       7 (100.0 %)
         8 (94.3 %)      9 (100.0 %)    10 (7.2 %)      11 (3.9 %)
        Total: 624.0%
Initial condition solution time: CPU = 31.055 ms, elapsed = 31.6751 ms.
Intrinsic tran analysis time:    CPU = 920.298 ms, elapsed = 1.01992 s.
Opening mt file:  /CASNFSHOME2/home/sstatthoudakis/Documents/spectre/Gates/NAND2/corners/corner_pin2/gate_load/nand_ff.mt11
Total time required for tran analysis `transient12': CPU = 960.807 ms, elapsed = 1.10301 s, util. = 87.1%.
Time accumulated: CPU = 12.5133 s, elapsed = 16.863 s.
Peak resident memory used = 164 Mbytes.


**************************
Alter Group `altergroup12'
**************************
Time for altergroup12: CPU = 17.723 ms, elapsed = 18.153 ms.
Time accumulated: CPU = 12.5312 s, elapsed = 16.8824 s.
Peak resident memory used = 164 Mbytes.


******************************************************
Transient Analysis `transient13': time = (0 s -> 2 ns)
******************************************************

Notice from spectre during IC analysis `timeSweep_cloned_12', during transient analysis `transient13'.
    GminDC = 1 pS is large enough to noticeably affect the DC solution.
        dV(nfanout4_10.ncell11.net15) = -2.84683 mV
        Use the `gmin_check' option to eliminate or expand this report.

DC simulation time: CPU = 24.094 ms, elapsed = 26.5031 ms.

Notice from spectre during transient analysis `transient13'.
    No outputs were found. Loosening output filter criterion to `allpub'.


Opening the PSFXL file ./nand_ff.raw/transient13.tran.tran ...
Important parameter values:
    start = 0 s
    outputstart = 0 s
    stop = 2 ns
    step = 100 fs
    maxstep = 40 ps
    ic = all
    useprevic = no
    skipdc = no
    reltol = 1e-03
    abstol(V) = 1 uV
    abstol(I) = 1 pA
    temp = 0 C
    tnom = 27 C
    tempeffects = all
    errpreset = moderate
    method = traponly
    lteratio = 3.5
    relref = sigglobal
    cmin = 0 F
    gmin = 1 pS


Output and IC/nodeset summary:
                 probe  2       
                 save   3       (current)
                 save   683     (voltage)

......9......8......7......6.....

Notice from spectre at time = 983.804 ps during transient analysis `transient13'.
    Found trapezoidal ringing on node VGND:p.

......9......8......7......6......

Notice from spectre at time = 1.0238 ns during transient analysis `transient13'.
    Found trapezoidal ringing on node VGND:p.

......9......8......7......6......5.

Notice from spectre at time = 1.0638 ns during transient analysis `transient13'.
    Found trapezoidal ringing on node VGND:p.

......9......8......7......6......5..

Notice from spectre at time = 1.1038 ns during transient analysis `transient13'.
    Found trapezoidal ringing on node VGND:p.

......9......8......7......6......5....

Notice from spectre at time = 1.1294 ns during transient analysis `transient13'.
    Found trapezoidal ringing on node VGND:p.
        Further occurrences of this notice will be suppressed.

......9......8......7......6......5......4......3......2......1......0
Number of accepted tran steps =             345

Notice from spectre during transient analysis `transient13'.
    Trapezoidal ringing is detected during tran analysis.
        Please use method=trap for better results and performance.


Maximum value achieved for any signal of each quantity: 
V: V(nfanout4_10.ncell13.2:Q) = 1.393 V
I: I(VVDD:p) = 345.6 uA
If your circuit contains signals of the same quantity that are vastly different in size (such as high voltage circuitry combined with low voltage control circuitry), you should consider specifying global option `bin_relref=yes'.

~~~~~~~~~~~~~~~~~~~~~~~~~~~~~~~~~
Post-Transient Simulation Summary
~~~~~~~~~~~~~~~~~~~~~~~~~~~~~~~~~
   -   To further speed up simulation, consider
          add ++aps on command line
~~~~~~~~~~~~~~~~~~~~~~~~~~~~~~~~~


During simulation, the CPU load for active processors is :
         0 (26.5 %)      1 (17.9 %)      2 (38.4 %)      3 (100.0 %)
         4 (100.0 %)     5 (28.1 %)      6 (7.0 %)       7 (100.0 %)
         8 (94.8 %)      9 (100.0 %)    10 (7.0 %)      11 (3.9 %)
        Total: 623.6%
Initial condition solution time: CPU = 24.162 ms, elapsed = 27.163 ms.
Intrinsic tran analysis time:    CPU = 1.01712 s, elapsed = 1.27079 s.
Opening mt file:  /CASNFSHOME2/home/sstatthoudakis/Documents/spectre/Gates/NAND2/corners/corner_pin2/gate_load/nand_ff.mt12
Total time required for tran analysis `transient13': CPU = 1.04928 s, elapsed = 1.32437 s, util. = 79.2%.
Time accumulated: CPU = 13.6 s, elapsed = 18.329 s.
Peak resident memory used = 164 Mbytes.


Notice from spectre.
    1 notice suppressed.


**************************
Alter Group `altergroup13'
**************************
Time for altergroup13: CPU = 17.25 ms, elapsed = 18.6899 ms.
Time accumulated: CPU = 13.6174 s, elapsed = 18.3491 s.
Peak resident memory used = 164 Mbytes.


******************************************************
Transient Analysis `transient14': time = (0 s -> 2 ns)
******************************************************
DC simulation time: CPU = 22.935 ms, elapsed = 22.939 ms.

Notice from spectre during transient analysis `transient14'.
    No outputs were found. Loosening output filter criterion to `allpub'.


Opening the PSFXL file ./nand_ff.raw/transient14.tran.tran ...
Important parameter values:
    start = 0 s
    outputstart = 0 s
    stop = 2 ns
    step = 100 fs
    maxstep = 40 ps
    ic = all
    useprevic = no
    skipdc = no
    reltol = 1e-03
    abstol(V) = 1 uV
    abstol(I) = 1 pA
    temp = 50 C
    tnom = 27 C
    tempeffects = all
    errpreset = moderate
    method = traponly
    lteratio = 3.5
    relref = sigglobal
    cmin = 0 F
    gmin = 1 pS


Output and IC/nodeset summary:
                 probe  2       
                 save   3       (current)
                 save   683     (voltage)

......9......8......7......6......5

Notice from spectre at time = 1.02994 ns during transient analysis `transient14'.
    Found trapezoidal ringing on node VGND:p.

......9......8......7......6......5.

Notice from spectre at time = 1.06994 ns during transient analysis `transient14'.
    Found trapezoidal ringing on node VGND:p.

......9......8......7......6......5..

Notice from spectre at time = 1.10994 ns during transient analysis `transient14'.
    Found trapezoidal ringing on node VGND:p.

......9......8......7......6......5....

Notice from spectre at time = 1.13247 ns during transient analysis `transient14'.
    Found trapezoidal ringing on node VGND:p.

......9......8......7......6......5.....

Notice from spectre at time = 1.155 ns during transient analysis `transient14'.
    Found trapezoidal ringing on node VGND:p.
        Further occurrences of this notice will be suppressed.

......9......8......7......6......5......4......3......2......1......0
Number of accepted tran steps =             338

Notice from spectre during transient analysis `transient14'.
    Trapezoidal ringing is detected during tran analysis.
        Please use method=trap for better results and performance.


Maximum value achieved for any signal of each quantity: 
V: V(nfanout4_10.ncell13.2:Q) = 1.39 V
I: I(VVDD:p) = 330.3 uA
If your circuit contains signals of the same quantity that are vastly different in size (such as high voltage circuitry combined with low voltage control circuitry), you should consider specifying global option `bin_relref=yes'.

~~~~~~~~~~~~~~~~~~~~~~~~~~~~~~~~~
Post-Transient Simulation Summary
~~~~~~~~~~~~~~~~~~~~~~~~~~~~~~~~~
   -   To further speed up simulation, consider
          add ++aps on command line
~~~~~~~~~~~~~~~~~~~~~~~~~~~~~~~~~


During simulation, the CPU load for active processors is :
         0 (28.4 %)      1 (16.8 %)      2 (36.3 %)      3 (100.0 %)
         4 (100.0 %)     5 (29.4 %)      6 (7.7 %)       7 (100.0 %)
         8 (95.2 %)      9 (100.0 %)    10 (6.7 %)      11 (4.2 %)
        Total: 624.6%
Initial condition solution time: CPU = 23.052 ms, elapsed = 23.7381 ms.
Intrinsic tran analysis time:    CPU = 1.0289 s, elapsed = 1.18551 s.
Opening mt file:  /CASNFSHOME2/home/sstatthoudakis/Documents/spectre/Gates/NAND2/corners/corner_pin2/gate_load/nand_ff.mt13
Total time required for tran analysis `transient14': CPU = 1.06026 s, elapsed = 1.26719 s, util. = 83.7%.
Time accumulated: CPU = 14.6969 s, elapsed = 19.8471 s.
Peak resident memory used = 164 Mbytes.


**************************
Alter Group `altergroup14'
**************************
Time for altergroup14: CPU = 17.923 ms, elapsed = 18.4159 ms.
Time accumulated: CPU = 14.7149 s, elapsed = 19.8669 s.
Peak resident memory used = 164 Mbytes.


******************************************************
Transient Analysis `transient15': time = (0 s -> 2 ns)
******************************************************
DC simulation time: CPU = 19.364 ms, elapsed = 19.388 ms.

Notice from spectre during transient analysis `transient15'.
    No outputs were found. Loosening output filter criterion to `allpub'.


Opening the PSFXL file ./nand_ff.raw/transient15.tran.tran ...
Important parameter values:
    start = 0 s
    outputstart = 0 s
    stop = 2 ns
    step = 100 fs
    maxstep = 40 ps
    ic = all
    useprevic = no
    skipdc = no
    reltol = 1e-03
    abstol(V) = 1 uV
    abstol(I) = 1 pA
    temp = 125 C
    tnom = 27 C
    tempeffects = all
    errpreset = moderate
    method = traponly
    lteratio = 3.5
    relref = sigglobal
    cmin = 0 F
    gmin = 1 pS


Output and IC/nodeset summary:
                 probe  2       
                 save   3       (current)
                 save   683     (voltage)

......9......8......7......6......5.....

Notice from spectre at time = 1.155 ns during transient analysis `transient15'.
    Found trapezoidal ringing on node nfanout4_10.ncell13.net15.

......9......8......7......6......5......4......3......2......1......0
Number of accepted tran steps =             310

Notice from spectre during transient analysis `transient15'.
    Trapezoidal ringing is detected during tran analysis.
        Please use method=trap for better results and performance.


Maximum value achieved for any signal of each quantity: 
V: V(nfanout4_10.ncell13.2:Q) = 1.385 V
I: I(VVDD:p) = 323.3 uA
If your circuit contains signals of the same quantity that are vastly different in size (such as high voltage circuitry combined with low voltage control circuitry), you should consider specifying global option `bin_relref=yes'.

~~~~~~~~~~~~~~~~~~~~~~~~~~~~~~~~~
Post-Transient Simulation Summary
~~~~~~~~~~~~~~~~~~~~~~~~~~~~~~~~~
   -   To further speed up simulation, consider
          add ++aps on command line
~~~~~~~~~~~~~~~~~~~~~~~~~~~~~~~~~


During simulation, the CPU load for active processors is :
         0 (26.4 %)      1 (16.0 %)      2 (33.7 %)      3 (100.0 %)
         4 (100.0 %)     5 (32.1 %)      6 (7.3 %)       7 (100.0 %)
         8 (95.6 %)      9 (100.0 %)    10 (6.2 %)      11 (4.0 %)
        Total: 621.3%
Initial condition solution time: CPU = 19.49 ms, elapsed = 23.9351 ms.
Intrinsic tran analysis time:    CPU = 917.056 ms, elapsed = 1.08348 s.
Opening mt file:  /CASNFSHOME2/home/sstatthoudakis/Documents/spectre/Gates/NAND2/corners/corner_pin2/gate_load/nand_ff.mt14
Total time required for tran analysis `transient15': CPU = 946.334 ms, elapsed = 1.32311 s, util. = 71.5%.
Time accumulated: CPU = 15.679 s, elapsed = 21.2871 s.
Peak resident memory used = 164 Mbytes.

Licensing Information:
Lic Summary:
[15:49:29.101330] Cdslmd servers:5280@10.64.82.10
[15:49:29.101362] Feature usage summary:
[15:49:29.101363] Virtuoso_Multi_mode_Simulation


Aggregate audit (3:49:29 PM, Wed Oct 29, 2025):
Time used: CPU = 15.7 s, elapsed = 21.3 s, util. = 73.7%.
Time spent in licensing: elapsed = 47.6 ms.
Peak memory used = 164 Mbytes.
Simulation started at: 3:49:07 PM, Wed Oct 29, 2025, ended at: 3:49:29 PM, Wed Oct 29, 2025, with elapsed time (wall clock): 21.3 s.
spectre completes with 0 errors, 12 warnings, and 46 notices.
