
Spectre (R) Circuit Simulator
Version 23.1.0.242.isr1 64bit -- 7 Sep 2023
Copyright (C) 1989-2023 Cadence Design Systems, Inc. All rights reserved worldwide. Cadence and Spectre are registered trademarks of Cadence Design Systems, Inc. All others are the property of their respective holders.

Includes RSA BSAFE(R) Cryptographic or Security Protocol Software from RSA Security, Inc.

User: sstatthoudakis   Host: torreyridge   HostID: 7F0100   PID: 18733
Memory  available: 91.0437 GB  physical: 135.0278 GB
Linux   : CentOS Linux release 7 (Core)
CPU Type: Intel(R) Xeon(R) Silver 4114 CPU @ 2.20GHz
All processors running at 2194.8 MHz
        Socket: Processors
        0:       0
        2:       1
        4:       2
        6:       3
        8:       4
        10:      5
        12:      6
        14:      7
        16:      8
        18:      9
        20:     10
        22:     11
        
System load averages (1min, 5min, 15min) : 62.1 %, 59.8 %, 49.2 %
This is a virtual machine


Simulating `nand_tt.scs' on torreyridge at 3:49:48 PM, Wed Oct 29, 2025 (process id: 18733).
Current working directory: /CASNFSHOME2/home/sstatthoudakis/Documents/spectre/Gates/NAND2/corners/corner_pin2/gate_load
Command line:
     \
        /CASNFSHOME/home/edatools/cadence/2023-24/RHELx86/SPECTRE_23.10.242/tools.lnx86/bin/spectre  \
        -64 nand_tt.scs

Licensing Information:
[15:49:48.231929] Configured Lic search path (22.01-s002): 5280@10.64.82.10

Licensing Information:
[15:49:48.241800] Periodic Lic check successful

Loading /CASNFSHOME/home/edatools/cadence/2023-24/RHELx86/SPECTRE_23.10.242/tools.lnx86/cmi/lib/64bit/5.0/libinfineon_sh.so ...
Loading /CASNFSHOME/home/edatools/cadence/2023-24/RHELx86/SPECTRE_23.10.242/tools.lnx86/cmi/lib/64bit/5.0/libphilips_I_sh.so ...
Loading /CASNFSHOME/home/edatools/cadence/2023-24/RHELx86/SPECTRE_23.10.242/tools.lnx86/cmi/lib/64bit/5.0/libphilips_sh.so ...
Loading /CASNFSHOME/home/edatools/cadence/2023-24/RHELx86/SPECTRE_23.10.242/tools.lnx86/cmi/lib/64bit/5.0/libsparam_sh.so ...
Loading /CASNFSHOME/home/edatools/cadence/2023-24/RHELx86/SPECTRE_23.10.242/tools.lnx86/cmi/lib/64bit/5.0/libstmodels_sh.so ...
Reading file:  /CASNFSHOME2/home/sstatthoudakis/Documents/spectre/Gates/NAND2/corners/corner_pin2/gate_load/nand_tt.scs
Reading file:  /CASNFSHOME/home/edatools/cadence/2023-24/RHELx86/SPECTRE_23.10.242/tools.lnx86/spectre/etc/configs/spectre.cfg
Reading file:  /CASNFSHOME/home/tsaikaterini/IHP/IHP_Generation_files/130ng/ihp013ng_include_all.scs
Reading file:  /CASNFSHOME/home/tsaikaterini/IHP/IHP_Generation_files/130ng/SG13S_618_rev1.12.15/tech/SG13_HBT/VBIC/spectre/SG13_cornerBIP.scs
Reading file:  /CASNFSHOME/home/tsaikaterini/IHP/IHP_Generation_files/130ng/SG13S_618_rev1.12.15/tech/SG13_HBT/VBIC/spectre/SG13_hbt.lib
Reading file:  /CASNFSHOME/home/tsaikaterini/IHP/IHP_Generation_files/130ng/SG13S_618_rev1.12.15/tech/SG13_HBT/VBIC/spectre/SG13_hbt_mm.scs
Reading file:  /CASNFSHOME/home/tsaikaterini/IHP/IHP_Generation_files/130ng/SG13S_618_rev1.12.15/tech/SG13_HBT/VBIC/spectre/SG13_hbt_stat.scs
Reading file:  /CASNFSHOME/home/tsaikaterini/IHP/IHP_Generation_files/130ng/SG13S_618_rev1.12.15/tech/SG13_MOS/library/spectre/cornerMOSlv_psp.scs
Reading file:  /CASNFSHOME/home/tsaikaterini/IHP/IHP_Generation_files/130ng/SG13S_618_rev1.12.15/tech/SG13_MOS/library/spectre/sg13_moslv_psp_stat.scs
Reading file:  /CASNFSHOME/home/tsaikaterini/IHP/IHP_Generation_files/130ng/SG13S_618_rev1.12.15/tech/SG13_MOS/library/spectre/sg13_moslv_psp_mod.lib
Reading file:  /CASNFSHOME/home/tsaikaterini/IHP/IHP_Generation_files/130ng/SG13S_618_rev1.12.15/tech/SG13_MOS/library/spectre/sg13_moslv_psp_parm.scs
Reading file:  /CASNFSHOME/home/tsaikaterini/IHP/IHP_Generation_files/130ng/SG13S_618_rev1.12.15/tech/SG13_MOS/library/spectre/cornerMOShv_psp.scs
Reading file:  /CASNFSHOME/home/tsaikaterini/IHP/IHP_Generation_files/130ng/SG13S_618_rev1.12.15/tech/SG13_MOS/library/spectre/sg13_moshv_psp_stat.scs
Reading file:  /CASNFSHOME/home/tsaikaterini/IHP/IHP_Generation_files/130ng/SG13S_618_rev1.12.15/tech/SG13_MOS/library/spectre/sg13_moshv_psp_mod.lib
Reading file:  /CASNFSHOME/home/tsaikaterini/IHP/IHP_Generation_files/130ng/SG13S_618_rev1.12.15/tech/SG13_MOS/library/spectre/sg13_moshv_psp_parm.scs

Warning from spectre in `nmoselt', during circuit read-in.
    WARNING (SFE-2296): "/CASNFSHOME/home/tsaikaterini/IHP/IHP_Generation_files/130ng/SG13S_618_rev1.12.15/tech/SG13_MOS/library/spectre/sg13_moshv_psp_mod.lib" 79: The inline subckt definition `nmoselt' does not contain any inline components. The `inline' qualifier will therefore be ignored.

Reading file:  /CASNFSHOME/home/tsaikaterini/IHP/IHP_Generation_files/130ng/SG13S_618_rev1.12.15/tech/SG13_MOS/library/spectre/sg13_svaricaphv_mosvar_mod.lib
Reading file:  /CASNFSHOME/home/tsaikaterini/IHP/IHP_Generation_files/130ng/SG13S_618_rev1.12.15/tech/SG13_PASSIVES/spectre/SG13_cornerRES.scs
Reading file:  /CASNFSHOME/home/tsaikaterini/IHP/IHP_Generation_files/130ng/SG13S_618_rev1.12.15/tech/SG13_PASSIVES/spectre/SG13_res_mm.scs
Reading file:  /CASNFSHOME/home/tsaikaterini/IHP/IHP_Generation_files/130ng/SG13S_618_rev1.12.15/tech/SG13_PASSIVES/spectre/SG13_res_stat.scs
Reading file:  /CASNFSHOME/home/tsaikaterini/IHP/IHP_Generation_files/130ng/SG13S_618_rev1.12.15/tech/SG13_PASSIVES/spectre/SG13_res.lib
Reading file:  /CASNFSHOME/home/tsaikaterini/IHP/IHP_Generation_files/130ng/SG13S_618_rev1.12.15/tech/SG13_PASSIVES/spectre/SG13_cornerCAP.scs
Reading file:  /CASNFSHOME/home/tsaikaterini/IHP/IHP_Generation_files/130ng/SG13S_618_rev1.12.15/tech/SG13_PASSIVES/spectre/SG13_cap_mm.scs
Reading file:  /CASNFSHOME/home/tsaikaterini/IHP/IHP_Generation_files/130ng/SG13S_618_rev1.12.15/tech/SG13_PASSIVES/spectre/SG13_cap_stat.scs
Reading file:  /CASNFSHOME/home/tsaikaterini/IHP/IHP_Generation_files/130ng/SG13S_618_rev1.12.15/tech/SG13_PASSIVES/spectre/SG13_cap.lib
Reading file:  /CASNFSHOME/home/tsaikaterini/IHP/IHP_Generation_files/130ng/SG13S_618_rev1.12.15/tech/SG13_PASSIVES/spectre/Ind_unit_4PI
Reading file:  /CASNFSHOME/home/tsaikaterini/IHP/IHP_Generation_files/130ng/SG13S_618_rev1.12.15/tech/SG13_PASSIVES/spectre/Parameters_define_4PI
Reading file:  /CASNFSHOME/home/tsaikaterini/IHP/IHP_Generation_files/130ng/SG13S_618_rev1.12.15/tech/SG13_PASSIVES/spectre/sg13s_dschottky_nbl1_mod.lib
Reading file:  /CASNFSHOME/home/tsaikaterini/IHP/IHP_Generation_files/130ng/SG13S_618_rev1.12.15/tech/SG13_PASSIVES/spectre/SG13_diodes.lib
Reading file:  /CASNFSHOME/home/tsaikaterini/IHP/IHP_Generation_files/130ng/SG13S_618_rev1.12.15/tech/SG13_MOS/library/spectre/CheckMOSstat.scs
Reading file:  /CASNFSHOME/home/tsaikaterini/IHP/IHP_Generation_files/130ng/SG13S_618_rev1.12.15/tech/SG13_MOS/library/spectre/CheckMOSdyn.scs
Reading file:  /CASNFSHOME/home/tsaikaterini/IHP/IHP_Generation_files/130ng/SG13S_618_rev1.12.15/tech/SG13_ESD/spectre/SG13_esd.lib
Reading file:  /CASNFSHOME/home/tsaikaterini/IHP/IHP_Generation_files/130ng/SG13S_618_rev1.12.15/tech/SG13_PASSIVES/spectre/SG13_cornerTSV.scs
Reading file:  /CASNFSHOME/home/tsaikaterini/IHP/IHP_Generation_files/130ng/SG13S_618_rev1.12.15/tech/SG13_PASSIVES/spectre/SG13_paramsTSV.scs
Reading file:  /CASNFSHOME/home/tsaikaterini/IHP/IHP_Generation_files/130ng/SG13S_618_rev1.12.15/tech/SG13_PASSIVES/spectre/SG13_tsv.lib
Reading file:  /CASNFSHOME/home/tsaikaterini/IHP/IHP_Generation_files/130ng/ixc013ng_stdcell_rc.scs
Time for NDB Parsing: CPU = 547.752 ms, elapsed = 688.134 ms.
Time accumulated: CPU = 648.391 ms, elapsed = 688.138 ms.
Peak resident memory used = 130 Mbytes.


Warning from spectre in `NA2JIX0':`ncell1', during hierarchy flattening.
    WARNING (SFE-103): "/CASNFSHOME/home/tsaikaterini/IHP/IHP_Generation_files/130ng/ixc013ng_stdcell_rc.scs" 26304: Subcircuit parameter `nrd', defined for subcircuit `sg13_lv_pmos', has been ignored because it is invalid. Check the parameters that are defined for the instantiated subcircuit and rerun the simulation.
    WARNING (SFE-103): "/CASNFSHOME/home/tsaikaterini/IHP/IHP_Generation_files/130ng/ixc013ng_stdcell_rc.scs" 26304: Subcircuit parameter `nrs', defined for subcircuit `sg13_lv_pmos', has been ignored because it is invalid. Check the parameters that are defined for the instantiated subcircuit and rerun the simulation.
    WARNING (SFE-103): "/CASNFSHOME/home/tsaikaterini/IHP/IHP_Generation_files/130ng/ixc013ng_stdcell_rc.scs" 26307: Subcircuit parameter `nrd', defined for subcircuit `sg13_lv_pmos', has been ignored because it is invalid. Check the parameters that are defined for the instantiated subcircuit and rerun the simulation.
    WARNING (SFE-103): "/CASNFSHOME/home/tsaikaterini/IHP/IHP_Generation_files/130ng/ixc013ng_stdcell_rc.scs" 26307: Subcircuit parameter `nrs', defined for subcircuit `sg13_lv_pmos', has been ignored because it is invalid. Check the parameters that are defined for the instantiated subcircuit and rerun the simulation.
    WARNING (SFE-103): "/CASNFSHOME/home/tsaikaterini/IHP/IHP_Generation_files/130ng/ixc013ng_stdcell_rc.scs" 26310: Subcircuit parameter `nrd', defined for subcircuit `sg13_lv_nmos', has been ignored because it is invalid. Check the parameters that are defined for the instantiated subcircuit and rerun the simulation.
        Further occurrences of this warning will be suppressed.

Time for Elaboration: CPU = 42.023 ms, elapsed = 45.3761 ms.
Time accumulated: CPU = 690.672 ms, elapsed = 735.154 ms.
Peak resident memory used = 139 Mbytes.

Loading /CASNFSHOME/home/edatools/cadence/2023-24/RHELx86/SPECTRE_23.10.242/tools.lnx86/mdl/lib/64bit/libSpectreEH_sh.so ...

Time for EDB Visiting: CPU = 29.508 ms, elapsed = 30.612 ms.
Time accumulated: CPU = 720.444 ms, elapsed = 767.515 ms.
Peak resident memory used = 145 Mbytes.


Warning from spectre during initial setup.
    WARNING (SPECTRE-17237): Assert violations will be written to the sqldb file because the 'checklimitdest' option has not been specified.
    WARNING (SPECTRE-17607): Assert `check_sg13s_lv_nmosHV_vgs' is ignored because it contains an expression which is not supported by native evaluator. 
    WARNING (SPECTRE-17607): Assert `check_sg13s_lv_nmosHV_vgd' is ignored because it contains an expression which is not supported by native evaluator. 
    WARNING (SPECTRE-17607): Assert `check_sg13s_lv_nmosHV_vds' is ignored because it contains an expression which is not supported by native evaluator. 
    WARNING (SPECTRE-17607): Assert `check_sg13s_lv_nmosHV_vdb' is ignored because it contains an expression which is not supported by native evaluator. 
    WARNING (SPECTRE-17607): Assert `check_sg13s_lv_nmosHV_vgb' is ignored because it contains an expression which is not supported by native evaluator. 
        Further occurrences of this warning will be suppressed.


Global user options:
               temp = 0

Scoped user options:

Circuit inventory:
              nodes 683
          capacitor 760   
          pspnqs103 160   
           resistor 600   
            vsource 3     

Analysis and control statement inventory:
         altergroup 14    
               tran 15    

Output statements:
             .probe 0     
           .measure 3     
               save 0     

Design checks inventory:
          paramtest 640   
             assert 40    


Notice from spectre.
    322 warnings suppressed.

Time for parsing: CPU = 27.717 ms, elapsed = 712.032 ms.
Time accumulated: CPU = 748.379 ms, elapsed = 1.48108 s.
Peak resident memory used = 149 Mbytes.

~~~~~~~~~~~~~~~~~~~~~~
Pre-Simulation Summary
~~~~~~~~~~~~~~~~~~~~~~
~~~~~~~~~~~~~~~~~~~~~~

Notice from spectre during transient analysis `transient1'.
    No checklimit analysis defined for asserts. A default checklimit analysis 'SpectreChecklimitAnal' has been created with all asserts enabled.


*****************************************************
Transient Analysis `transient1': time = (0 s -> 2 ns)
*****************************************************

Notice from spectre during IC analysis `timeSweep', during transient analysis `transient1'.
    GminDC = 1 pS is large enough to noticeably affect the DC solution.
        dV(ncell1.net15) = -14.5987 mV
        Use the `gmin_check' option to eliminate or expand this report.

DC simulation time: CPU = 35.875 ms, elapsed = 38.141 ms.

Notice from spectre during transient analysis `transient1'.
    No outputs were found. Loosening output filter criterion to `allpub'.


Opening the PSFXL file ./nand_tt.raw/transient1.tran.tran ...
Important parameter values:
    start = 0 s
    outputstart = 0 s
    stop = 2 ns
    step = 100 fs
    maxstep = 40 ps
    ic = all
    useprevic = no
    skipdc = no
    reltol = 1e-03
    abstol(V) = 1 uV
    abstol(I) = 1 pA
    temp = 0 C
    tnom = 27 C
    tempeffects = all
    errpreset = moderate
    method = traponly
    lteratio = 3.5
    relref = sigglobal
    cmin = 0 F
    gmin = 1 pS


Output and IC/nodeset summary:
                 probe  2       
                 save   3       (current)
                 save   683     (voltage)

......9......8......7......6......5......4......3......2......1......0
Number of accepted tran steps =             248

Maximum value achieved for any signal of each quantity: 
V: V(nfanout4_10.ncell12.2:Q) = 1.041 V
I: I(VVDD:p) = 148.2 uA
If your circuit contains signals of the same quantity that are vastly different in size (such as high voltage circuitry combined with low voltage control circuitry), you should consider specifying global option `bin_relref=yes'.

~~~~~~~~~~~~~~~~~~~~~~~~~~~~~~~~~
Post-Transient Simulation Summary
~~~~~~~~~~~~~~~~~~~~~~~~~~~~~~~~~
   -   To further speed up simulation, consider
          add ++aps on command line
~~~~~~~~~~~~~~~~~~~~~~~~~~~~~~~~~


During simulation, the CPU load for active processors is :
         0 (3.8 %)       1 (38.8 %)      2 (16.7 %)      3 (100.0 %)
         4 (100.0 %)     5 (40.1 %)      6 (11.5 %)      7 (100.0 %)
         8 (100.0 %)     9 (100.0 %)    10 (16.5 %)     11 (1.3 %)
        Total: 628.5%
Initial condition solution time: CPU = 35.983 ms, elapsed = 38.769 ms.
Intrinsic tran analysis time:    CPU = 767.541 ms, elapsed = 860.112 ms.
Opening measure  file:  /CASNFSHOME2/home/sstatthoudakis/Documents/spectre/Gates/NAND2/corners/corner_pin2/gate_load/nand_tt.measure
Opening mt file:  /CASNFSHOME2/home/sstatthoudakis/Documents/spectre/Gates/NAND2/corners/corner_pin2/gate_load/nand_tt.mt0
Total time required for tran analysis `transient1': CPU = 895.44 ms, elapsed = 1.12721 s, util. = 79.4%.
Time accumulated: CPU = 1.68533 s, elapsed = 2.73452 s.
Peak resident memory used = 163 Mbytes.


*************************
Alter Group `altergroup1'
*************************
Time for altergroup1: CPU = 41.38 ms, elapsed = 41.8591 ms.
Time accumulated: CPU = 1.72692 s, elapsed = 2.7778 s.
Peak resident memory used = 163 Mbytes.


*****************************************************
Transient Analysis `transient2': time = (0 s -> 2 ns)
*****************************************************

Notice from spectre during IC analysis `timeSweep_cloned_1', during transient analysis `transient2'.
    GminDC = 1 pS is large enough to noticeably affect the DC solution.
        dV(ncell1.net15) = -2.46119 mV
        Use the `gmin_check' option to eliminate or expand this report.

DC simulation time: CPU = 37.661 ms, elapsed = 39.465 ms.

Notice from spectre during transient analysis `transient2'.
    No outputs were found. Loosening output filter criterion to `allpub'.


Opening the PSFXL file ./nand_tt.raw/transient2.tran.tran ...
Important parameter values:
    start = 0 s
    outputstart = 0 s
    stop = 2 ns
    step = 100 fs
    maxstep = 40 ps
    ic = all
    useprevic = no
    skipdc = no
    reltol = 1e-03
    abstol(V) = 1 uV
    abstol(I) = 1 pA
    temp = 50 C
    tnom = 27 C
    tempeffects = all
    errpreset = moderate
    method = traponly
    lteratio = 3.5
    relref = sigglobal
    cmin = 0 F
    gmin = 1 pS


Output and IC/nodeset summary:
                 probe  2       
                 save   3       (current)
                 save   683     (voltage)

......9......8......7......6......5......4......3......2......1......0
Number of accepted tran steps =             238

Maximum value achieved for any signal of each quantity: 
V: V(nfanout4_10.ncell13.2:Q) = 1.027 V
I: I(VVDD:p) = 141.2 uA
If your circuit contains signals of the same quantity that are vastly different in size (such as high voltage circuitry combined with low voltage control circuitry), you should consider specifying global option `bin_relref=yes'.

~~~~~~~~~~~~~~~~~~~~~~~~~~~~~~~~~
Post-Transient Simulation Summary
~~~~~~~~~~~~~~~~~~~~~~~~~~~~~~~~~
   -   To further speed up simulation, consider
          add ++aps on command line
~~~~~~~~~~~~~~~~~~~~~~~~~~~~~~~~~


During simulation, the CPU load for active processors is :
         0 (25.9 %)      1 (34.2 %)      2 (14.4 %)      3 (85.0 %)
         4 (100.0 %)     5 (44.1 %)      6 (8.8 %)       7 (100.0 %)
         8 (100.0 %)     9 (100.0 %)    10 (14.2 %)     11 (1.9 %)
        Total: 628.6%
Initial condition solution time: CPU = 37.78 ms, elapsed = 40.005 ms.
Intrinsic tran analysis time:    CPU = 757.79 ms, elapsed = 838.542 ms.
Opening mt file:  /CASNFSHOME2/home/sstatthoudakis/Documents/spectre/Gates/NAND2/corners/corner_pin2/gate_load/nand_tt.mt1
Total time required for tran analysis `transient2': CPU = 812.685 ms, elapsed = 946.927 ms, util. = 85.8%.
Time accumulated: CPU = 2.56236 s, elapsed = 3.88071 s.
Peak resident memory used = 164 Mbytes.


*************************
Alter Group `altergroup2'
*************************
Time for altergroup2: CPU = 26.817 ms, elapsed = 28.477 ms.
Time accumulated: CPU = 2.58958 s, elapsed = 3.91634 s.
Peak resident memory used = 164 Mbytes.


*****************************************************
Transient Analysis `transient3': time = (0 s -> 2 ns)
*****************************************************
DC simulation time: CPU = 25.796 ms, elapsed = 25.8 ms.

Notice from spectre during transient analysis `transient3'.
    No outputs were found. Loosening output filter criterion to `allpub'.


Opening the PSFXL file ./nand_tt.raw/transient3.tran.tran ...
Important parameter values:
    start = 0 s
    outputstart = 0 s
    stop = 2 ns
    step = 100 fs
    maxstep = 40 ps
    ic = all
    useprevic = no
    skipdc = no
    reltol = 1e-03
    abstol(V) = 1 uV
    abstol(I) = 1 pA
    temp = 125 C
    tnom = 27 C
    tempeffects = all
    errpreset = moderate
    method = traponly
    lteratio = 3.5
    relref = sigglobal
    cmin = 0 F
    gmin = 1 pS


Output and IC/nodeset summary:
                 probe  2       
                 save   3       (current)
                 save   683     (voltage)

......9......8......7......6......5......4......3......2......1......0
Number of accepted tran steps =             225

Maximum value achieved for any signal of each quantity: 
V: V(nfanout4_1.ncell13.2:Q) = 1.005 V
I: I(VVDD:p) = 146.8 uA
If your circuit contains signals of the same quantity that are vastly different in size (such as high voltage circuitry combined with low voltage control circuitry), you should consider specifying global option `bin_relref=yes'.

~~~~~~~~~~~~~~~~~~~~~~~~~~~~~~~~~
Post-Transient Simulation Summary
~~~~~~~~~~~~~~~~~~~~~~~~~~~~~~~~~
   -   To further speed up simulation, consider
          add ++aps on command line
~~~~~~~~~~~~~~~~~~~~~~~~~~~~~~~~~


During simulation, the CPU load for active processors is :
         0 (36.6 %)      1 (32.1 %)      2 (12.5 %)      3 (88.5 %)
         4 (100.0 %)     5 (35.7 %)      6 (7.2 %)       7 (100.0 %)
         8 (100.0 %)     9 (100.0 %)    10 (10.9 %)     11 (2.1 %)
        Total: 625.6%
Initial condition solution time: CPU = 25.951 ms, elapsed = 26.4652 ms.
Intrinsic tran analysis time:    CPU = 701.553 ms, elapsed = 811.668 ms.
Opening mt file:  /CASNFSHOME2/home/sstatthoudakis/Documents/spectre/Gates/NAND2/corners/corner_pin2/gate_load/nand_tt.mt2
Total time required for tran analysis `transient3': CPU = 737.006 ms, elapsed = 899.344 ms, util. = 81.9%.
Time accumulated: CPU = 3.34826 s, elapsed = 4.92256 s.
Peak resident memory used = 164 Mbytes.


*************************
Alter Group `altergroup3'
*************************
Time for altergroup3: CPU = 24.431 ms, elapsed = 24.79 ms.
Time accumulated: CPU = 3.37281 s, elapsed = 4.9484 s.
Peak resident memory used = 164 Mbytes.


*****************************************************
Transient Analysis `transient4': time = (0 s -> 2 ns)
*****************************************************

Notice from spectre during IC analysis `timeSweep_cloned_3', during transient analysis `transient4'.
    GminDC = 1 pS is large enough to noticeably affect the DC solution.
        dV(nfanout4_10.ncell11.net15) = -14.4878 mV
        Use the `gmin_check' option to eliminate or expand this report.

DC simulation time: CPU = 26.557 ms, elapsed = 28.2481 ms.

Notice from spectre during transient analysis `transient4'.
    No outputs were found. Loosening output filter criterion to `allpub'.


Opening the PSFXL file ./nand_tt.raw/transient4.tran.tran ...
Important parameter values:
    start = 0 s
    outputstart = 0 s
    stop = 2 ns
    step = 100 fs
    maxstep = 40 ps
    ic = all
    useprevic = no
    skipdc = no
    reltol = 1e-03
    abstol(V) = 1 uV
    abstol(I) = 1 pA
    temp = 0 C
    tnom = 27 C
    tempeffects = all
    errpreset = moderate
    method = traponly
    lteratio = 3.5
    relref = sigglobal
    cmin = 0 F
    gmin = 1 pS


Output and IC/nodeset summary:
                 probe  2       
                 save   3       (current)
                 save   683     (voltage)

......9......8......7......6......5......4......3......2......1......0
Number of accepted tran steps =             291

Maximum value achieved for any signal of each quantity: 
V: V(nfanout4_10.ncell13.2:Q) = 1.134 V
I: I(VVDD:p) = 158.6 uA
If your circuit contains signals of the same quantity that are vastly different in size (such as high voltage circuitry combined with low voltage control circuitry), you should consider specifying global option `bin_relref=yes'.

~~~~~~~~~~~~~~~~~~~~~~~~~~~~~~~~~
Post-Transient Simulation Summary
~~~~~~~~~~~~~~~~~~~~~~~~~~~~~~~~~
   -   To further speed up simulation, consider
          add ++aps on command line
~~~~~~~~~~~~~~~~~~~~~~~~~~~~~~~~~


During simulation, the CPU load for active processors is :
         0 (45.6 %)      1 (30.8 %)      2 (11.8 %)      3 (90.7 %)
         4 (100.0 %)     5 (30.0 %)      6 (6.1 %)       7 (100.0 %)
         8 (100.0 %)     9 (100.0 %)    10 (9.0 %)      11 (1.9 %)
        Total: 626.0%
Initial condition solution time: CPU = 26.628 ms, elapsed = 28.605 ms.
Intrinsic tran analysis time:    CPU = 854.078 ms, elapsed = 939.929 ms.
Opening mt file:  /CASNFSHOME2/home/sstatthoudakis/Documents/spectre/Gates/NAND2/corners/corner_pin2/gate_load/nand_tt.mt3
Total time required for tran analysis `transient4': CPU = 891.375 ms, elapsed = 1.03235 s, util. = 86.3%.
Time accumulated: CPU = 4.28515 s, elapsed = 6.10165 s.
Peak resident memory used = 169 Mbytes.


*************************
Alter Group `altergroup4'
*************************
Time for altergroup4: CPU = 18.33 ms, elapsed = 19.254 ms.
Time accumulated: CPU = 4.30368 s, elapsed = 6.13658 s.
Peak resident memory used = 169 Mbytes.


*****************************************************
Transient Analysis `transient5': time = (0 s -> 2 ns)
*****************************************************

Notice from spectre during IC analysis `timeSweep_cloned_4', during transient analysis `transient5'.
    GminDC = 1 pS is large enough to noticeably affect the DC solution.
        dV(nfanout4_10.ncell11.net15) = -2.45666 mV
        Use the `gmin_check' option to eliminate or expand this report.

DC simulation time: CPU = 25.81 ms, elapsed = 27.7431 ms.

Notice from spectre during transient analysis `transient5'.
    No outputs were found. Loosening output filter criterion to `allpub'.


Opening the PSFXL file ./nand_tt.raw/transient5.tran.tran ...
Important parameter values:
    start = 0 s
    outputstart = 0 s
    stop = 2 ns
    step = 100 fs
    maxstep = 40 ps
    ic = all
    useprevic = no
    skipdc = no
    reltol = 1e-03
    abstol(V) = 1 uV
    abstol(I) = 1 pA
    temp = 50 C
    tnom = 27 C
    tempeffects = all
    errpreset = moderate
    method = traponly
    lteratio = 3.5
    relref = sigglobal
    cmin = 0 F
    gmin = 1 pS


Output and IC/nodeset summary:
                 probe  2       
                 save   3       (current)
                 save   683     (voltage)

......9......8......7......6......5......4......3......2......1......0
Number of accepted tran steps =             272

Maximum value achieved for any signal of each quantity: 
V: V(nfanout4_10.ncell13.2:Q) = 1.119 V
I: I(VVDD:p) = 158.7 uA
If your circuit contains signals of the same quantity that are vastly different in size (such as high voltage circuitry combined with low voltage control circuitry), you should consider specifying global option `bin_relref=yes'.

~~~~~~~~~~~~~~~~~~~~~~~~~~~~~~~~~
Post-Transient Simulation Summary
~~~~~~~~~~~~~~~~~~~~~~~~~~~~~~~~~
   -   To further speed up simulation, consider
          add ++aps on command line
~~~~~~~~~~~~~~~~~~~~~~~~~~~~~~~~~


During simulation, the CPU load for active processors is :
         0 (50.1 %)      1 (25.8 %)      2 (15.2 %)      3 (92.2 %)
         4 (100.0 %)     5 (25.6 %)      6 (6.2 %)       7 (100.0 %)
         8 (100.0 %)     9 (100.0 %)    10 (7.9 %)      11 (2.0 %)
        Total: 625.1%
Initial condition solution time: CPU = 25.882 ms, elapsed = 28.2099 ms.
Intrinsic tran analysis time:    CPU = 812.185 ms, elapsed = 919.323 ms.
Opening mt file:  /CASNFSHOME2/home/sstatthoudakis/Documents/spectre/Gates/NAND2/corners/corner_pin2/gate_load/nand_tt.mt4
Total time required for tran analysis `transient5': CPU = 846.811 ms, elapsed = 1.01266 s, util. = 83.6%.
Time accumulated: CPU = 5.1661 s, elapsed = 7.28566 s.
Peak resident memory used = 169 Mbytes.


*************************
Alter Group `altergroup5'
*************************
Time for altergroup5: CPU = 17.605 ms, elapsed = 17.971 ms.
Time accumulated: CPU = 5.18382 s, elapsed = 7.30526 s.
Peak resident memory used = 169 Mbytes.


*****************************************************
Transient Analysis `transient6': time = (0 s -> 2 ns)
*****************************************************
DC simulation time: CPU = 22.157 ms, elapsed = 22.161 ms.

Notice from spectre during transient analysis `transient6'.
    No outputs were found. Loosening output filter criterion to `allpub'.


Opening the PSFXL file ./nand_tt.raw/transient6.tran.tran ...
Important parameter values:
    start = 0 s
    outputstart = 0 s
    stop = 2 ns
    step = 100 fs
    maxstep = 40 ps
    ic = all
    useprevic = no
    skipdc = no
    reltol = 1e-03
    abstol(V) = 1 uV
    abstol(I) = 1 pA
    temp = 125 C
    tnom = 27 C
    tempeffects = all
    errpreset = moderate
    method = traponly
    lteratio = 3.5
    relref = sigglobal
    cmin = 0 F
    gmin = 1 pS


Output and IC/nodeset summary:
                 probe  2       
                 save   3       (current)
                 save   683     (voltage)

......9......8......7......6......5......4......3......2......1......0
Number of accepted tran steps =             253

Maximum value achieved for any signal of each quantity: 
V: V(nfanout4_1.ncell13.2:Q) = 1.1 V
I: I(VVDD:p) = 175.7 uA
If your circuit contains signals of the same quantity that are vastly different in size (such as high voltage circuitry combined with low voltage control circuitry), you should consider specifying global option `bin_relref=yes'.

~~~~~~~~~~~~~~~~~~~~~~~~~~~~~~~~~
Post-Transient Simulation Summary
~~~~~~~~~~~~~~~~~~~~~~~~~~~~~~~~~
   -   To further speed up simulation, consider
          add ++aps on command line
~~~~~~~~~~~~~~~~~~~~~~~~~~~~~~~~~


During simulation, the CPU load for active processors is :
         0 (53.7 %)      1 (23.0 %)      2 (15.5 %)      3 (93.3 %)
         4 (100.0 %)     5 (24.1 %)      6 (5.6 %)       7 (100.0 %)
         8 (100.0 %)     9 (100.0 %)    10 (9.2 %)      11 (2.8 %)
        Total: 627.3%
Initial condition solution time: CPU = 22.262 ms, elapsed = 22.784 ms.
Intrinsic tran analysis time:    CPU = 778.669 ms, elapsed = 869.77 ms.
Opening mt file:  /CASNFSHOME2/home/sstatthoudakis/Documents/spectre/Gates/NAND2/corners/corner_pin2/gate_load/nand_tt.mt5
Total time required for tran analysis `transient6': CPU = 810.466 ms, elapsed = 947.134 ms, util. = 85.6%.
Time accumulated: CPU = 6.0236 s, elapsed = 8.35704 s.
Peak resident memory used = 169 Mbytes.


*************************
Alter Group `altergroup6'
*************************
Time for altergroup6: CPU = 31.786 ms, elapsed = 32.1982 ms.
Time accumulated: CPU = 6.05561 s, elapsed = 8.39051 s.
Peak resident memory used = 169 Mbytes.


*****************************************************
Transient Analysis `transient7': time = (0 s -> 2 ns)
*****************************************************

Notice from spectre during IC analysis `timeSweep_cloned_6', during transient analysis `transient7'.
    GminDC = 1 pS is large enough to noticeably affect the DC solution.
        dV(nfanout4_10.ncell11.net15) = -14.3252 mV
        Use the `gmin_check' option to eliminate or expand this report.

DC simulation time: CPU = 43.536 ms, elapsed = 45.6328 ms.

Notice from spectre during transient analysis `transient7'.
    No outputs were found. Loosening output filter criterion to `allpub'.


Opening the PSFXL file ./nand_tt.raw/transient7.tran.tran ...
Important parameter values:
    start = 0 s
    outputstart = 0 s
    stop = 2 ns
    step = 100 fs
    maxstep = 40 ps
    ic = all
    useprevic = no
    skipdc = no
    reltol = 1e-03
    abstol(V) = 1 uV
    abstol(I) = 1 pA
    temp = 0 C
    tnom = 27 C
    tempeffects = all
    errpreset = moderate
    method = traponly
    lteratio = 3.5
    relref = sigglobal
    cmin = 0 F
    gmin = 1 pS


Output and IC/nodeset summary:
                 probe  2       
                 save   3       (current)
                 save   683     (voltage)

......9......8......7......6......5......4......3......2......1......0
Number of accepted tran steps =             320

Maximum value achieved for any signal of each quantity: 
V: V(nfanout4_10.ncell13.2:Q) = 1.222 V
I: I(VVDD:p) = 187.9 uA
If your circuit contains signals of the same quantity that are vastly different in size (such as high voltage circuitry combined with low voltage control circuitry), you should consider specifying global option `bin_relref=yes'.

~~~~~~~~~~~~~~~~~~~~~~~~~~~~~~~~~
Post-Transient Simulation Summary
~~~~~~~~~~~~~~~~~~~~~~~~~~~~~~~~~
   -   To further speed up simulation, consider
          add ++aps on command line
~~~~~~~~~~~~~~~~~~~~~~~~~~~~~~~~~


During simulation, the CPU load for active processors is :
         0 (46.2 %)      1 (25.3 %)      2 (20.3 %)      3 (94.3 %)
         4 (100.0 %)     5 (21.0 %)      6 (5.1 %)       7 (100.0 %)
         8 (100.0 %)     9 (100.0 %)    10 (7.9 %)      11 (3.3 %)
        Total: 623.5%
Initial condition solution time: CPU = 43.665 ms, elapsed = 46.1249 ms.
Intrinsic tran analysis time:    CPU = 981.436 ms, elapsed = 1.219 s.
Opening mt file:  /CASNFSHOME2/home/sstatthoudakis/Documents/spectre/Gates/NAND2/corners/corner_pin2/gate_load/nand_tt.mt6
Total time required for tran analysis `transient7': CPU = 1.03442 s, elapsed = 1.331 s, util. = 77.7%.
Time accumulated: CPU = 7.10818 s, elapsed = 9.82932 s.
Peak resident memory used = 169 Mbytes.


*************************
Alter Group `altergroup7'
*************************
Time for altergroup7: CPU = 17.959 ms, elapsed = 18.3368 ms.
Time accumulated: CPU = 7.12625 s, elapsed = 9.84872 s.
Peak resident memory used = 169 Mbytes.


*****************************************************
Transient Analysis `transient8': time = (0 s -> 2 ns)
*****************************************************

Notice from spectre during IC analysis `timeSweep_cloned_7', during transient analysis `transient8'.
    GminDC = 1 pS is large enough to noticeably affect the DC solution.
        dV(nfanout4_10.ncell11.net15) = -2.43932 mV
        Use the `gmin_check' option to eliminate or expand this report.

DC simulation time: CPU = 25.794 ms, elapsed = 28.5552 ms.

Notice from spectre during transient analysis `transient8'.
    No outputs were found. Loosening output filter criterion to `allpub'.


Opening the PSFXL file ./nand_tt.raw/transient8.tran.tran ...
Important parameter values:
    start = 0 s
    outputstart = 0 s
    stop = 2 ns
    step = 100 fs
    maxstep = 40 ps
    ic = all
    useprevic = no
    skipdc = no
    reltol = 1e-03
    abstol(V) = 1 uV
    abstol(I) = 1 pA
    temp = 50 C
    tnom = 27 C
    tempeffects = all
    errpreset = moderate
    method = traponly
    lteratio = 3.5
    relref = sigglobal
    cmin = 0 F
    gmin = 1 pS


Output and IC/nodeset summary:
                 probe  2       
                 save   3       (current)
                 save   683     (voltage)

......9......8......7......6......5......4......3......2......1......0
Number of accepted tran steps =             299

Maximum value achieved for any signal of each quantity: 
V: V(nfanout4_1.ncell12.2:Q) = 1.206 V
I: I(VGND:p) = 177.4 uA
If your circuit contains signals of the same quantity that are vastly different in size (such as high voltage circuitry combined with low voltage control circuitry), you should consider specifying global option `bin_relref=yes'.

~~~~~~~~~~~~~~~~~~~~~~~~~~~~~~~~~
Post-Transient Simulation Summary
~~~~~~~~~~~~~~~~~~~~~~~~~~~~~~~~~
   -   To further speed up simulation, consider
          add ++aps on command line
~~~~~~~~~~~~~~~~~~~~~~~~~~~~~~~~~


During simulation, the CPU load for active processors is :
         0 (41.8 %)      1 (23.3 %)      2 (26.8 %)      3 (94.9 %)
         4 (100.0 %)     5 (19.4 %)      6 (4.7 %)       7 (100.0 %)
         8 (100.0 %)     9 (100.0 %)    10 (7.1 %)      11 (3.0 %)
        Total: 621.1%
Initial condition solution time: CPU = 25.866 ms, elapsed = 29.1772 ms.
Intrinsic tran analysis time:    CPU = 859.026 ms, elapsed = 949.694 ms.
Opening mt file:  /CASNFSHOME2/home/sstatthoudakis/Documents/spectre/Gates/NAND2/corners/corner_pin2/gate_load/nand_tt.mt7
Total time required for tran analysis `transient8': CPU = 893.197 ms, elapsed = 1.03794 s, util. = 86.1%.
Time accumulated: CPU = 8.03596 s, elapsed = 11.0069 s.
Peak resident memory used = 169 Mbytes.


*************************
Alter Group `altergroup8'
*************************
Time for altergroup8: CPU = 17.509 ms, elapsed = 17.9341 ms.
Time accumulated: CPU = 8.05358 s, elapsed = 11.026 s.
Peak resident memory used = 169 Mbytes.


*****************************************************
Transient Analysis `transient9': time = (0 s -> 2 ns)
*****************************************************
DC simulation time: CPU = 22.063 ms, elapsed = 22.068 ms.

Notice from spectre during transient analysis `transient9'.
    No outputs were found. Loosening output filter criterion to `allpub'.


Opening the PSFXL file ./nand_tt.raw/transient9.tran.tran ...
Important parameter values:
    start = 0 s
    outputstart = 0 s
    stop = 2 ns
    step = 100 fs
    maxstep = 40 ps
    ic = all
    useprevic = no
    skipdc = no
    reltol = 1e-03
    abstol(V) = 1 uV
    abstol(I) = 1 pA
    temp = 125 C
    tnom = 27 C
    tempeffects = all
    errpreset = moderate
    method = traponly
    lteratio = 3.5
    relref = sigglobal
    cmin = 0 F
    gmin = 1 pS


Output and IC/nodeset summary:
                 probe  2       
                 save   3       (current)
                 save   683     (voltage)

......9......8......7......6......5......4......3......2......1......0
Number of accepted tran steps =             279

Maximum value achieved for any signal of each quantity: 
V: V(nfanout4_1.ncell13.2:Q) = 1.197 V
I: I(VVDD:p) = 169.2 uA
If your circuit contains signals of the same quantity that are vastly different in size (such as high voltage circuitry combined with low voltage control circuitry), you should consider specifying global option `bin_relref=yes'.

~~~~~~~~~~~~~~~~~~~~~~~~~~~~~~~~~
Post-Transient Simulation Summary
~~~~~~~~~~~~~~~~~~~~~~~~~~~~~~~~~
   -   To further speed up simulation, consider
          add ++aps on command line
~~~~~~~~~~~~~~~~~~~~~~~~~~~~~~~~~


During simulation, the CPU load for active processors is :
         0 (40.8 %)      1 (21.2 %)      2 (31.8 %)      3 (95.4 %)
         4 (100.0 %)     5 (17.9 %)      6 (4.5 %)       7 (100.0 %)
         8 (100.0 %)     9 (100.0 %)    10 (6.6 %)      11 (2.9 %)
        Total: 621.1%
Initial condition solution time: CPU = 22.192 ms, elapsed = 22.984 ms.
Intrinsic tran analysis time:    CPU = 819.126 ms, elapsed = 900.012 ms.
Opening mt file:  /CASNFSHOME2/home/sstatthoudakis/Documents/spectre/Gates/NAND2/corners/corner_pin2/gate_load/nand_tt.mt8
Total time required for tran analysis `transient9': CPU = 849.635 ms, elapsed = 978.476 ms, util. = 86.8%.
Time accumulated: CPU = 8.92104 s, elapsed = 12.1642 s.
Peak resident memory used = 169 Mbytes.


*************************
Alter Group `altergroup9'
*************************
Time for altergroup9: CPU = 18.234 ms, elapsed = 18.8329 ms.
Time accumulated: CPU = 8.9394 s, elapsed = 12.1845 s.
Peak resident memory used = 169 Mbytes.


******************************************************
Transient Analysis `transient10': time = (0 s -> 2 ns)
******************************************************

Notice from spectre during IC analysis `timeSweep_cloned_9', during transient analysis `transient10'.
    GminDC = 1 pS is large enough to noticeably affect the DC solution.
        dV(nfanout4_10.ncell11.net15) = -14.1177 mV
        Use the `gmin_check' option to eliminate or expand this report.

DC simulation time: CPU = 27.964 ms, elapsed = 30.0291 ms.

Notice from spectre during transient analysis `transient10'.
    No outputs were found. Loosening output filter criterion to `allpub'.


Opening the PSFXL file ./nand_tt.raw/transient10.tran.tran ...
Important parameter values:
    start = 0 s
    outputstart = 0 s
    stop = 2 ns
    step = 100 fs
    maxstep = 40 ps
    ic = all
    useprevic = no
    skipdc = no
    reltol = 1e-03
    abstol(V) = 1 uV
    abstol(I) = 1 pA
    temp = 0 C
    tnom = 27 C
    tempeffects = all
    errpreset = moderate
    method = traponly
    lteratio = 3.5
    relref = sigglobal
    cmin = 0 F
    gmin = 1 pS


Output and IC/nodeset summary:
                 probe  2       
                 save   3       (current)
                 save   683     (voltage)

......9......8......7......6......5.....

Notice from spectre at time = 1.155 ns during transient analysis `transient10'.
    Found trapezoidal ringing on node VVDD:p.

......9......8......7......6......5......4......3......2......1......0
Number of accepted tran steps =             331

Notice from spectre during transient analysis `transient10'.
    Trapezoidal ringing is detected during tran analysis.
        Please use method=trap for better results and performance.


Maximum value achieved for any signal of each quantity: 
V: V(nfanout4_10.ncell13.2:Q) = 1.312 V
I: I(VVDD:p) = 232.1 uA
If your circuit contains signals of the same quantity that are vastly different in size (such as high voltage circuitry combined with low voltage control circuitry), you should consider specifying global option `bin_relref=yes'.

~~~~~~~~~~~~~~~~~~~~~~~~~~~~~~~~~
Post-Transient Simulation Summary
~~~~~~~~~~~~~~~~~~~~~~~~~~~~~~~~~
   -   To further speed up simulation, consider
          add ++aps on command line
~~~~~~~~~~~~~~~~~~~~~~~~~~~~~~~~~


During simulation, the CPU load for active processors is :
         0 (40.6 %)      1 (21.0 %)      2 (36.6 %)      3 (95.8 %)
         4 (100.0 %)     5 (17.8 %)      6 (5.9 %)       7 (100.0 %)
         8 (99.5 %)      9 (100.0 %)    10 (7.6 %)      11 (4.7 %)
        Total: 629.5%
Initial condition solution time: CPU = 28.041 ms, elapsed = 30.6451 ms.
Intrinsic tran analysis time:    CPU = 1.01218 s, elapsed = 1.19898 s.
Opening mt file:  /CASNFSHOME2/home/sstatthoudakis/Documents/spectre/Gates/NAND2/corners/corner_pin2/gate_load/nand_tt.mt9
Total time required for tran analysis `transient10': CPU = 1.04894 s, elapsed = 1.28756 s, util. = 81.5%.
Time accumulated: CPU = 10.0103 s, elapsed = 13.623 s.
Peak resident memory used = 169 Mbytes.


**************************
Alter Group `altergroup10'
**************************
Time for altergroup10: CPU = 20.087 ms, elapsed = 20.6492 ms.
Time accumulated: CPU = 10.0305 s, elapsed = 13.6454 s.
Peak resident memory used = 169 Mbytes.


******************************************************
Transient Analysis `transient11': time = (0 s -> 2 ns)
******************************************************

Notice from spectre during IC analysis `timeSweep_cloned_10', during transient analysis `transient11'.
    GminDC = 1 pS is large enough to noticeably affect the DC solution.
        dV(nfanout4_10.ncell11.net15) = -2.41185 mV
        Use the `gmin_check' option to eliminate or expand this report.

DC simulation time: CPU = 24.956 ms, elapsed = 26.5939 ms.

Notice from spectre during transient analysis `transient11'.
    No outputs were found. Loosening output filter criterion to `allpub'.


Opening the PSFXL file ./nand_tt.raw/transient11.tran.tran ...
Important parameter values:
    start = 0 s
    outputstart = 0 s
    stop = 2 ns
    step = 100 fs
    maxstep = 40 ps
    ic = all
    useprevic = no
    skipdc = no
    reltol = 1e-03
    abstol(V) = 1 uV
    abstol(I) = 1 pA
    temp = 50 C
    tnom = 27 C
    tempeffects = all
    errpreset = moderate
    method = traponly
    lteratio = 3.5
    relref = sigglobal
    cmin = 0 F
    gmin = 1 pS


Output and IC/nodeset summary:
                 probe  2       
                 save   3       (current)
                 save   683     (voltage)

......9......8......7......6......5......4......3......2......1......0
Number of accepted tran steps =             311

Maximum value achieved for any signal of each quantity: 
V: V(nfanout4_1.ncell13.2:Q) = 1.301 V
I: I(VVDD:p) = 217.8 uA
If your circuit contains signals of the same quantity that are vastly different in size (such as high voltage circuitry combined with low voltage control circuitry), you should consider specifying global option `bin_relref=yes'.

~~~~~~~~~~~~~~~~~~~~~~~~~~~~~~~~~
Post-Transient Simulation Summary
~~~~~~~~~~~~~~~~~~~~~~~~~~~~~~~~~
   -   To further speed up simulation, consider
          add ++aps on command line
~~~~~~~~~~~~~~~~~~~~~~~~~~~~~~~~~


During simulation, the CPU load for active processors is :
         0 (44.3 %)      1 (22.7 %)      2 (40.5 %)      3 (89.5 %)
         4 (100.0 %)     5 (18.1 %)      6 (7.0 %)       7 (100.0 %)
         8 (92.2 %)      9 (100.0 %)    10 (9.8 %)      11 (13.1 %)
        Total: 637.3%
Initial condition solution time: CPU = 25.026 ms, elapsed = 27.092 ms.
Intrinsic tran analysis time:    CPU = 912.719 ms, elapsed = 1.03704 s.
Opening mt file:  /CASNFSHOME2/home/sstatthoudakis/Documents/spectre/Gates/NAND2/corners/corner_pin2/gate_load/nand_tt.mt10
Total time required for tran analysis `transient11': CPU = 946.197 ms, elapsed = 1.12674 s, util. = 84%.
Time accumulated: CPU = 10.9995 s, elapsed = 15.1391 s.
Peak resident memory used = 169 Mbytes.


**************************
Alter Group `altergroup11'
**************************
Time for altergroup11: CPU = 21.036 ms, elapsed = 21.6141 ms.
Time accumulated: CPU = 11.0208 s, elapsed = 15.1672 s.
Peak resident memory used = 169 Mbytes.


******************************************************
Transient Analysis `transient12': time = (0 s -> 2 ns)
******************************************************
DC simulation time: CPU = 22.682 ms, elapsed = 22.686 ms.

Notice from spectre during transient analysis `transient12'.
    No outputs were found. Loosening output filter criterion to `allpub'.


Opening the PSFXL file ./nand_tt.raw/transient12.tran.tran ...
Important parameter values:
    start = 0 s
    outputstart = 0 s
    stop = 2 ns
    step = 100 fs
    maxstep = 40 ps
    ic = all
    useprevic = no
    skipdc = no
    reltol = 1e-03
    abstol(V) = 1 uV
    abstol(I) = 1 pA
    temp = 125 C
    tnom = 27 C
    tempeffects = all
    errpreset = moderate
    method = traponly
    lteratio = 3.5
    relref = sigglobal
    cmin = 0 F
    gmin = 1 pS


Output and IC/nodeset summary:
                 probe  2       
                 save   3       (current)
                 save   683     (voltage)

......9......8......7......6......5......4......3......2......1......0
Number of accepted tran steps =             292

Maximum value achieved for any signal of each quantity: 
V: V(nfanout4_1.ncell12.2:Q) = 1.294 V
I: I(VGND:p) = 208.1 uA
If your circuit contains signals of the same quantity that are vastly different in size (such as high voltage circuitry combined with low voltage control circuitry), you should consider specifying global option `bin_relref=yes'.

~~~~~~~~~~~~~~~~~~~~~~~~~~~~~~~~~
Post-Transient Simulation Summary
~~~~~~~~~~~~~~~~~~~~~~~~~~~~~~~~~
   -   To further speed up simulation, consider
          add ++aps on command line
~~~~~~~~~~~~~~~~~~~~~~~~~~~~~~~~~


During simulation, the CPU load for active processors is :
         0 (49.3 %)      1 (24.2 %)      2 (42.7 %)      3 (81.6 %)
         4 (100.0 %)     5 (17.4 %)      6 (6.6 %)       7 (100.0 %)
         8 (84.1 %)      9 (100.0 %)    10 (9.0 %)      11 (20.9 %)
        Total: 635.8%
Initial condition solution time: CPU = 22.796 ms, elapsed = 23.546 ms.
Intrinsic tran analysis time:    CPU = 832.602 ms, elapsed = 948.315 ms.
Opening mt file:  /CASNFSHOME2/home/sstatthoudakis/Documents/spectre/Gates/NAND2/corners/corner_pin2/gate_load/nand_tt.mt11
Total time required for tran analysis `transient12': CPU = 863.806 ms, elapsed = 1.02931 s, util. = 83.9%.
Time accumulated: CPU = 11.9037 s, elapsed = 16.4234 s.
Peak resident memory used = 169 Mbytes.


**************************
Alter Group `altergroup12'
**************************
Time for altergroup12: CPU = 17.709 ms, elapsed = 18.4729 ms.
Time accumulated: CPU = 11.9216 s, elapsed = 16.4436 s.
Peak resident memory used = 169 Mbytes.


******************************************************
Transient Analysis `transient13': time = (0 s -> 2 ns)
******************************************************

Notice from spectre during IC analysis `timeSweep_cloned_12', during transient analysis `transient13'.
    GminDC = 1 pS is large enough to noticeably affect the DC solution.
        dV(nfanout4_10.ncell11.net15) = -13.87 mV
        Use the `gmin_check' option to eliminate or expand this report.

DC simulation time: CPU = 26.992 ms, elapsed = 29.3388 ms.

Notice from spectre during transient analysis `transient13'.
    No outputs were found. Loosening output filter criterion to `allpub'.


Opening the PSFXL file ./nand_tt.raw/transient13.tran.tran ...
Important parameter values:
    start = 0 s
    outputstart = 0 s
    stop = 2 ns
    step = 100 fs
    maxstep = 40 ps
    ic = all
    useprevic = no
    skipdc = no
    reltol = 1e-03
    abstol(V) = 1 uV
    abstol(I) = 1 pA
    temp = 0 C
    tnom = 27 C
    tempeffects = all
    errpreset = moderate
    method = traponly
    lteratio = 3.5
    relref = sigglobal
    cmin = 0 F
    gmin = 1 pS


Output and IC/nodeset summary:
                 probe  2       
                 save   3       (current)
                 save   683     (voltage)

......9......8......7......6......5.....

Notice from spectre at time = 1.155 ns during transient analysis `transient13'.
    Found trapezoidal ringing on node VVDD:p.

......9......8......7......6......5......4......3......2......1......0
Number of accepted tran steps =             348

Notice from spectre during transient analysis `transient13'.
    Trapezoidal ringing is detected during tran analysis.
        Please use method=trap for better results and performance.


Maximum value achieved for any signal of each quantity: 
V: V(nfanout4_10.ncell13.2:Q) = 1.404 V
I: I(VVDD:p) = 278.2 uA
If your circuit contains signals of the same quantity that are vastly different in size (such as high voltage circuitry combined with low voltage control circuitry), you should consider specifying global option `bin_relref=yes'.

~~~~~~~~~~~~~~~~~~~~~~~~~~~~~~~~~
Post-Transient Simulation Summary
~~~~~~~~~~~~~~~~~~~~~~~~~~~~~~~~~
   -   To further speed up simulation, consider
          add ++aps on command line
~~~~~~~~~~~~~~~~~~~~~~~~~~~~~~~~~


During simulation, the CPU load for active processors is :
         0 (53.8 %)      1 (25.7 %)      2 (45.3 %)      3 (74.4 %)
         4 (100.0 %)     5 (16.1 %)      6 (6.2 %)       7 (100.0 %)
         8 (76.8 %)      9 (100.0 %)    10 (8.5 %)      11 (27.9 %)
        Total: 634.8%
Initial condition solution time: CPU = 27.061 ms, elapsed = 30.174 ms.
Intrinsic tran analysis time:    CPU = 1.02727 s, elapsed = 1.18649 s.
Opening mt file:  /CASNFSHOME2/home/sstatthoudakis/Documents/spectre/Gates/NAND2/corners/corner_pin2/gate_load/nand_tt.mt12
Total time required for tran analysis `transient13': CPU = 1.06966 s, elapsed = 1.34025 s, util. = 79.8%.
Time accumulated: CPU = 13.0139 s, elapsed = 17.9936 s.
Peak resident memory used = 169 Mbytes.


**************************
Alter Group `altergroup13'
**************************
Time for altergroup13: CPU = 17.718 ms, elapsed = 18.2822 ms.
Time accumulated: CPU = 13.0317 s, elapsed = 18.0151 s.
Peak resident memory used = 169 Mbytes.


******************************************************
Transient Analysis `transient14': time = (0 s -> 2 ns)
******************************************************

Notice from spectre during IC analysis `timeSweep_cloned_13', during transient analysis `transient14'.
    GminDC = 1 pS is large enough to noticeably affect the DC solution.
        dV(nfanout4_10.ncell11.net15) = -2.37626 mV
        Use the `gmin_check' option to eliminate or expand this report.

DC simulation time: CPU = 24.283 ms, elapsed = 26.3479 ms.

Notice from spectre during transient analysis `transient14'.
    No outputs were found. Loosening output filter criterion to `allpub'.


Opening the PSFXL file ./nand_tt.raw/transient14.tran.tran ...
Important parameter values:
    start = 0 s
    outputstart = 0 s
    stop = 2 ns
    step = 100 fs
    maxstep = 40 ps
    ic = all
    useprevic = no
    skipdc = no
    reltol = 1e-03
    abstol(V) = 1 uV
    abstol(I) = 1 pA
    temp = 50 C
    tnom = 27 C
    tempeffects = all
    errpreset = moderate
    method = traponly
    lteratio = 3.5
    relref = sigglobal
    cmin = 0 F
    gmin = 1 pS


Output and IC/nodeset summary:
                 probe  2       
                 save   3       (current)
                 save   683     (voltage)

......9......8......7......6......5....

Notice from spectre at time = 1.155 ns during transient analysis `transient14'.
    Found trapezoidal ringing on node VVDD:p.

......9......8......7......6......5......4......3......2......1......0
Number of accepted tran steps =             328

Notice from spectre during transient analysis `transient14'.
    Trapezoidal ringing is detected during tran analysis.
        Please use method=trap for better results and performance.


Maximum value achieved for any signal of each quantity: 
V: V(nfanout4_10.ncell11.2:Q) = 1.398 V
I: I(VVDD:p) = 267.7 uA
If your circuit contains signals of the same quantity that are vastly different in size (such as high voltage circuitry combined with low voltage control circuitry), you should consider specifying global option `bin_relref=yes'.

~~~~~~~~~~~~~~~~~~~~~~~~~~~~~~~~~
Post-Transient Simulation Summary
~~~~~~~~~~~~~~~~~~~~~~~~~~~~~~~~~
   -   To further speed up simulation, consider
          add ++aps on command line
~~~~~~~~~~~~~~~~~~~~~~~~~~~~~~~~~


During simulation, the CPU load for active processors is :
         0 (57.5 %)      1 (25.7 %)      2 (46.4 %)      3 (69.1 %)
         4 (100.0 %)     5 (15.3 %)      6 (7.1 %)       7 (100.0 %)
         8 (70.7 %)      9 (100.0 %)    10 (8.0 %)      11 (33.8 %)
        Total: 633.5%
Initial condition solution time: CPU = 24.348 ms, elapsed = 26.8891 ms.
Intrinsic tran analysis time:    CPU = 1.01217 s, elapsed = 1.21871 s.
Opening mt file:  /CASNFSHOME2/home/sstatthoudakis/Documents/spectre/Gates/NAND2/corners/corner_pin2/gate_load/nand_tt.mt13
Total time required for tran analysis `transient14': CPU = 1.04808 s, elapsed = 1.31777 s, util. = 79.5%.
Time accumulated: CPU = 14.1134 s, elapsed = 19.5132 s.
Peak resident memory used = 169 Mbytes.


**************************
Alter Group `altergroup14'
**************************
Time for altergroup14: CPU = 26.358 ms, elapsed = 27.138 ms.
Time accumulated: CPU = 14.1401 s, elapsed = 19.5427 s.
Peak resident memory used = 169 Mbytes.


******************************************************
Transient Analysis `transient15': time = (0 s -> 2 ns)
******************************************************
DC simulation time: CPU = 25.749 ms, elapsed = 25.753 ms.

Notice from spectre during transient analysis `transient15'.
    No outputs were found. Loosening output filter criterion to `allpub'.


Opening the PSFXL file ./nand_tt.raw/transient15.tran.tran ...
Important parameter values:
    start = 0 s
    outputstart = 0 s
    stop = 2 ns
    step = 100 fs
    maxstep = 40 ps
    ic = all
    useprevic = no
    skipdc = no
    reltol = 1e-03
    abstol(V) = 1 uV
    abstol(I) = 1 pA
    temp = 125 C
    tnom = 27 C
    tempeffects = all
    errpreset = moderate
    method = traponly
    lteratio = 3.5
    relref = sigglobal
    cmin = 0 F
    gmin = 1 pS


Output and IC/nodeset summary:
                 probe  2       
                 save   3       (current)
                 save   683     (voltage)

......9......8......7......6......5......4......3......2......1......0
Number of accepted tran steps =             307

Maximum value achieved for any signal of each quantity: 
V: V(nfanout4_1.ncell13.2:Q) = 1.39 V
I: I(VGND:p) = 252 uA
If your circuit contains signals of the same quantity that are vastly different in size (such as high voltage circuitry combined with low voltage control circuitry), you should consider specifying global option `bin_relref=yes'.

~~~~~~~~~~~~~~~~~~~~~~~~~~~~~~~~~
Post-Transient Simulation Summary
~~~~~~~~~~~~~~~~~~~~~~~~~~~~~~~~~
   -   To further speed up simulation, consider
          add ++aps on command line
~~~~~~~~~~~~~~~~~~~~~~~~~~~~~~~~~


During simulation, the CPU load for active processors is :
         0 (60.4 %)      1 (28.1 %)      2 (45.0 %)      3 (66.2 %)
         4 (100.0 %)     5 (14.7 %)      6 (7.6 %)       7 (100.0 %)
         8 (66.1 %)      9 (100.0 %)    10 (8.4 %)      11 (38.3 %)
        Total: 634.6%
Initial condition solution time: CPU = 25.886 ms, elapsed = 26.6411 ms.
Intrinsic tran analysis time:    CPU = 946.252 ms, elapsed = 1.09002 s.
Opening mt file:  /CASNFSHOME2/home/sstatthoudakis/Documents/spectre/Gates/NAND2/corners/corner_pin2/gate_load/nand_tt.mt14
Total time required for tran analysis `transient15': CPU = 985.802 ms, elapsed = 1.17861 s, util. = 83.6%.
Time accumulated: CPU = 15.143 s, elapsed = 20.8444 s.
Peak resident memory used = 169 Mbytes.

Licensing Information:
Lic Summary:
[15:50:09.032730] Cdslmd servers:5280@10.64.82.10
[15:50:09.032771] Feature usage summary:
[15:50:09.032771] Virtuoso_Multi_mode_Simulation


Aggregate audit (3:50:09 PM, Wed Oct 29, 2025):
Time used: CPU = 15.2 s, elapsed = 20.9 s, util. = 72.7%.
Time spent in licensing: elapsed = 29.7 ms.
Peak memory used = 169 Mbytes.
Simulation started at: 3:49:48 PM, Wed Oct 29, 2025, ended at: 3:50:09 PM, Wed Oct 29, 2025, with elapsed time (wall clock): 20.9 s.
spectre completes with 0 errors, 12 warnings, and 34 notices.
