
Spectre (R) Circuit Simulator
Version 23.1.0.242.isr1 64bit -- 7 Sep 2023
Copyright (C) 1989-2023 Cadence Design Systems, Inc. All rights reserved
        worldwide. Cadence and Spectre are registered trademarks of Cadence
        Design Systems, Inc. All others are the property of their respective
        holders.

Includes RSA BSAFE(R) Cryptographic or Security Protocol Software from RSA
        Security, Inc.

User: sstatthoudakis   Host: torreyridge   HostID: 7F0100   PID: 18658
Memory  available: 91.0558 GB  physical: 135.0278 GB
Linux   : CentOS Linux release 7 (Core)
CPU Type: Intel(R) Xeon(R) Silver 4114 CPU @ 2.20GHz
All processors running at 2194.8 MHz
        Socket: Processors
        0:       0
        2:       1
        4:       2
        6:       3
        8:       4
        10:      5
        12:      6
        14:      7
        16:      8
        18:      9
        20:     10
        22:     11
        
System load averages (1min, 5min, 15min) : 63.6 %, 59.9 %, 49.1 %
This is a virtual machine


Simulating `nand_ss.scs' on torreyridge at 3:49:29 PM, Wed Oct 29, 2025
        (process id: 18658).
Current working directory:
        /CASNFSHOME2/home/sstatthoudakis/Documents/spectre/Gates/NAND2/corners/corner_pin2/gate_load
Command line:
     \
        /CASNFSHOME/home/edatools/cadence/2023-24/RHELx86/SPECTRE_23.10.242/tools.lnx86/bin/spectre
        \
        -64 nand_ss.scs
Licensing Information:
[15:49:29.231921] Configured Lic search path (22.01-s002): 5280@10.64.82.10

Licensing Information:
[15:49:29.488816] Periodic Lic check successful

Reading file: 
        /CASNFSHOME2/home/sstatthoudakis/Documents/spectre/Gates/NAND2/corners/corner_pin2/gate_load/nand_ss.scs
Reading file: 
        /CASNFSHOME/home/edatools/cadence/2023-24/RHELx86/SPECTRE_23.10.242/tools.lnx86/spectre/etc/configs/spectre.cfg
Reading file: 
        /CASNFSHOME/home/tsaikaterini/IHP/IHP_Generation_files/130ng/ihp013ng_include_all_slow.scs
Reading file: 
        /CASNFSHOME/home/tsaikaterini/IHP/IHP_Generation_files/130ng/SG13S_618_rev1.12.15/tech/SG13_HBT/VBIC/spectre/SG13_cornerBIP.scs
Reading file: 
        /CASNFSHOME/home/tsaikaterini/IHP/IHP_Generation_files/130ng/SG13S_618_rev1.12.15/tech/SG13_HBT/VBIC/spectre/SG13_hbt_mm.scs
Reading file: 
        /CASNFSHOME/home/tsaikaterini/IHP/IHP_Generation_files/130ng/SG13S_618_rev1.12.15/tech/SG13_HBT/VBIC/spectre/SG13_hbt.lib
Reading file: 
        /CASNFSHOME/home/tsaikaterini/IHP/IHP_Generation_files/130ng/SG13S_618_rev1.12.15/tech/SG13_HBT/VBIC/spectre/SG13_hbt_stat.scs
Reading file: 
        /CASNFSHOME/home/tsaikaterini/IHP/IHP_Generation_files/130ng/SG13S_618_rev1.12.15/tech/SG13_MOS/library/spectre/cornerMOSlv_psp.scs
Reading file: 
        /CASNFSHOME/home/tsaikaterini/IHP/IHP_Generation_files/130ng/SG13S_618_rev1.12.15/tech/SG13_MOS/library/spectre/sg13_moslv_psp_stat.scs
Reading file: 
        /CASNFSHOME/home/tsaikaterini/IHP/IHP_Generation_files/130ng/SG13S_618_rev1.12.15/tech/SG13_MOS/library/spectre/sg13_moslv_psp_mod.lib
Reading file: 
        /CASNFSHOME/home/tsaikaterini/IHP/IHP_Generation_files/130ng/SG13S_618_rev1.12.15/tech/SG13_MOS/library/spectre/sg13_moslv_psp_parm.scs
Reading file: 
        /CASNFSHOME/home/tsaikaterini/IHP/IHP_Generation_files/130ng/SG13S_618_rev1.12.15/tech/SG13_MOS/library/spectre/cornerMOShv_psp.scs
Reading file: 
        /CASNFSHOME/home/tsaikaterini/IHP/IHP_Generation_files/130ng/SG13S_618_rev1.12.15/tech/SG13_MOS/library/spectre/sg13_moshv_psp_stat.scs
Reading file: 
        /CASNFSHOME/home/tsaikaterini/IHP/IHP_Generation_files/130ng/SG13S_618_rev1.12.15/tech/SG13_MOS/library/spectre/sg13_moshv_psp_mod.lib
Reading file: 
        /CASNFSHOME/home/tsaikaterini/IHP/IHP_Generation_files/130ng/SG13S_618_rev1.12.15/tech/SG13_MOS/library/spectre/sg13_moshv_psp_parm.scs

Warning from spectre in `nmoselt', during circuit read-in.
    WARNING (SFE-2296):
        "/CASNFSHOME/home/tsaikaterini/IHP/IHP_Generation_files/130ng/SG13S_618_rev1.12.15/tech/SG13_MOS/library/spectre/sg13_moshv_psp_mod.lib"
        79: The inline subckt definition `nmoselt' does not contain any inline
        components. The `inline' qualifier will therefore be ignored.

Reading file: 
        /CASNFSHOME/home/tsaikaterini/IHP/IHP_Generation_files/130ng/SG13S_618_rev1.12.15/tech/SG13_MOS/library/spectre/sg13_svaricaphv_mosvar_mod.lib
Reading file: 
        /CASNFSHOME/home/tsaikaterini/IHP/IHP_Generation_files/130ng/SG13S_618_rev1.12.15/tech/SG13_PASSIVES/spectre/SG13_cornerRES.scs
Reading file: 
        /CASNFSHOME/home/tsaikaterini/IHP/IHP_Generation_files/130ng/SG13S_618_rev1.12.15/tech/SG13_PASSIVES/spectre/SG13_res_mm.scs
Reading file: 
        /CASNFSHOME/home/tsaikaterini/IHP/IHP_Generation_files/130ng/SG13S_618_rev1.12.15/tech/SG13_PASSIVES/spectre/SG13_res_stat.scs
Reading file: 
        /CASNFSHOME/home/tsaikaterini/IHP/IHP_Generation_files/130ng/SG13S_618_rev1.12.15/tech/SG13_PASSIVES/spectre/SG13_res.lib
Reading file: 
        /CASNFSHOME/home/tsaikaterini/IHP/IHP_Generation_files/130ng/SG13S_618_rev1.12.15/tech/SG13_PASSIVES/spectre/SG13_cornerCAP.scs
Reading file: 
        /CASNFSHOME/home/tsaikaterini/IHP/IHP_Generation_files/130ng/SG13S_618_rev1.12.15/tech/SG13_PASSIVES/spectre/SG13_cap_mm.scs
Reading file: 
        /CASNFSHOME/home/tsaikaterini/IHP/IHP_Generation_files/130ng/SG13S_618_rev1.12.15/tech/SG13_PASSIVES/spectre/SG13_cap_stat.scs
Reading file: 
        /CASNFSHOME/home/tsaikaterini/IHP/IHP_Generation_files/130ng/SG13S_618_rev1.12.15/tech/SG13_PASSIVES/spectre/SG13_cap.lib
Reading file: 
        /CASNFSHOME/home/tsaikaterini/IHP/IHP_Generation_files/130ng/SG13S_618_rev1.12.15/tech/SG13_PASSIVES/spectre/Ind_unit_4PI
Reading file: 
        /CASNFSHOME/home/tsaikaterini/IHP/IHP_Generation_files/130ng/SG13S_618_rev1.12.15/tech/SG13_PASSIVES/spectre/Parameters_define_4PI
Reading file: 
        /CASNFSHOME/home/tsaikaterini/IHP/IHP_Generation_files/130ng/SG13S_618_rev1.12.15/tech/SG13_PASSIVES/spectre/sg13s_dschottky_nbl1_mod.lib
Reading file: 
        /CASNFSHOME/home/tsaikaterini/IHP/IHP_Generation_files/130ng/SG13S_618_rev1.12.15/tech/SG13_PASSIVES/spectre/SG13_diodes.lib
Reading file: 
        /CASNFSHOME/home/tsaikaterini/IHP/IHP_Generation_files/130ng/SG13S_618_rev1.12.15/tech/SG13_MOS/library/spectre/CheckMOSstat.scs
Reading file: 
        /CASNFSHOME/home/tsaikaterini/IHP/IHP_Generation_files/130ng/SG13S_618_rev1.12.15/tech/SG13_MOS/library/spectre/CheckMOSdyn.scs
Reading file: 
        /CASNFSHOME/home/tsaikaterini/IHP/IHP_Generation_files/130ng/SG13S_618_rev1.12.15/tech/SG13_ESD/spectre/SG13_esd.lib
Reading file: 
        /CASNFSHOME/home/tsaikaterini/IHP/IHP_Generation_files/130ng/SG13S_618_rev1.12.15/tech/SG13_PASSIVES/spectre/SG13_cornerTSV.scs
Reading file: 
        /CASNFSHOME/home/tsaikaterini/IHP/IHP_Generation_files/130ng/SG13S_618_rev1.12.15/tech/SG13_PASSIVES/spectre/SG13_paramsTSV.scs
Reading file: 
        /CASNFSHOME/home/tsaikaterini/IHP/IHP_Generation_files/130ng/SG13S_618_rev1.12.15/tech/SG13_PASSIVES/spectre/SG13_tsv.lib
Reading file: 
        /CASNFSHOME/home/tsaikaterini/IHP/IHP_Generation_files/130ng/ixc013ng_stdcell_rc.scs
Time for NDB Parsing: CPU = 590.605 ms, elapsed = 888.387 ms.
Time accumulated: CPU = 700.228 ms, elapsed = 888.39 ms.
Peak resident memory used = 125 Mbytes.


Warning from spectre in `NA2JIX0':`ncell1', during hierarchy flattening.
    WARNING (SFE-103):
        "/CASNFSHOME/home/tsaikaterini/IHP/IHP_Generation_files/130ng/ixc013ng_stdcell_rc.scs"
        26304: Subcircuit parameter `nrd', defined for subcircuit
        `sg13_lv_pmos', has been ignored because it is invalid. Check the
        parameters that are defined for the instantiated subcircuit and rerun
        the simulation.
    WARNING (SFE-103):
        "/CASNFSHOME/home/tsaikaterini/IHP/IHP_Generation_files/130ng/ixc013ng_stdcell_rc.scs"
        26304: Subcircuit parameter `nrs', defined for subcircuit
        `sg13_lv_pmos', has been ignored because it is invalid. Check the
        parameters that are defined for the instantiated subcircuit and rerun
        the simulation.
    WARNING (SFE-103):
        "/CASNFSHOME/home/tsaikaterini/IHP/IHP_Generation_files/130ng/ixc013ng_stdcell_rc.scs"
        26307: Subcircuit parameter `nrd', defined for subcircuit
        `sg13_lv_pmos', has been ignored because it is invalid. Check the
        parameters that are defined for the instantiated subcircuit and rerun
        the simulation.
    WARNING (SFE-103):
        "/CASNFSHOME/home/tsaikaterini/IHP/IHP_Generation_files/130ng/ixc013ng_stdcell_rc.scs"
        26307: Subcircuit parameter `nrs', defined for subcircuit
        `sg13_lv_pmos', has been ignored because it is invalid. Check the
        parameters that are defined for the instantiated subcircuit and rerun
        the simulation.
    WARNING (SFE-103):
        "/CASNFSHOME/home/tsaikaterini/IHP/IHP_Generation_files/130ng/ixc013ng_stdcell_rc.scs"
        26310: Subcircuit parameter `nrd', defined for subcircuit
        `sg13_lv_nmos', has been ignored because it is invalid. Check the
        parameters that are defined for the instantiated subcircuit and rerun
        the simulation.
        Further occurrences of this warning will be suppressed.

Time for Elaboration: CPU = 40.928 ms, elapsed = 46.5679 ms.
Time accumulated: CPU = 741.373 ms, elapsed = 936.596 ms.
Peak resident memory used = 134 Mbytes.


Time for EDB Visiting: CPU = 28.394 ms, elapsed = 29.1491 ms.
Time accumulated: CPU = 769.994 ms, elapsed = 967.335 ms.
Peak resident memory used = 140 Mbytes.


Warning from spectre during initial setup.
    WARNING (SPECTRE-17237): Assert violations will be written to the sqldb
        file because the 'checklimitdest' option has not been specified.
    WARNING (SPECTRE-17607): Assert `check_sg13s_lv_nmosHV_vgs' is ignored
        because it contains an expression which is not supported by native
        evaluator. 
    WARNING (SPECTRE-17607): Assert `check_sg13s_lv_nmosHV_vgd' is ignored
        because it contains an expression which is not supported by native
        evaluator. 
    WARNING (SPECTRE-17607): Assert `check_sg13s_lv_nmosHV_vds' is ignored
        because it contains an expression which is not supported by native
        evaluator. 
    WARNING (SPECTRE-17607): Assert `check_sg13s_lv_nmosHV_vdb' is ignored
        because it contains an expression which is not supported by native
        evaluator. 
    WARNING (SPECTRE-17607): Assert `check_sg13s_lv_nmosHV_vgb' is ignored
        because it contains an expression which is not supported by native
        evaluator. 
        Further occurrences of this warning will be suppressed.


Global user options:
               temp = 0

Scoped user options:

Circuit inventory:
              nodes 683
          capacitor 760   
          pspnqs103 160   
           resistor 600   
            vsource 3     

Analysis and control statement inventory:
         altergroup 14    
               tran 15    

Output statements:
             .probe 0     
           .measure 3     
               save 0     

Design checks inventory:
          paramtest 640   
             assert 40    


Notice from spectre.
    322 warnings suppressed.

Time for parsing: CPU = 27.597 ms, elapsed = 480.362 ms.
Time accumulated: CPU = 797.803 ms, elapsed = 1.44937 s.
Peak resident memory used = 144 Mbytes.

~~~~~~~~~~~~~~~~~~~~~~
Pre-Simulation Summary
~~~~~~~~~~~~~~~~~~~~~~
~~~~~~~~~~~~~~~~~~~~~~

Notice from spectre during transient analysis `transient1'.
    No checklimit analysis defined for asserts. A default checklimit analysis
        'SpectreChecklimitAnal' has been created with all asserts enabled.


*****************************************************
Transient Analysis `transient1': time = (0 s -> 2 ns)
*****************************************************

Notice from spectre during IC analysis `timeSweep', during transient analysis
        `transient1'.
    GminDC = 1 pS is large enough to noticeably affect the DC solution.
        dV(ncell1.net15) = -22.9005 mV
        Use the `gmin_check' option to eliminate or expand this report.

DC simulation time: CPU = 41.512 ms, elapsed = 43.9529 ms.

Notice from spectre during transient analysis `transient1'.
    No outputs were found. Loosening output filter criterion to `allpub'.


Opening the PSFXL file ./nand_ss.raw/transient1.tran.tran ...
Important parameter values:
    start = 0 s
    outputstart = 0 s
    stop = 2 ns
    step = 100 fs
    maxstep = 40 ps
    ic = all
    useprevic = no
    skipdc = no
    reltol = 1e-03
    abstol(V) = 1 uV
    abstol(I) = 1 pA
    temp = 0 C
    tnom = 27 C
    tempeffects = all
    errpreset = moderate
    method = traponly
    lteratio = 3.5
    relref = sigglobal
    cmin = 0 F
    gmin = 1 pS


Output and IC/nodeset summary:
                 probe  2       
                 save   3       (current)
                 save   683     (voltage)

......9......8......7......6......5......4......3......2......1......0
Number of accepted tran steps =             204

Maximum value achieved for any signal of each quantity: 
V: V(nfanout4_1.ncell12.2:Q) = 1.062 V
I: I(VVDD:p) = 122.1 uA
If your circuit contains signals of the same quantity that are vastly different
        in size (such as high voltage circuitry combined with low voltage
        control circuitry), you should consider specifying global option
        `bin_relref=yes'.

~~~~~~~~~~~~~~~~~~~~~~~~~~~~~~~~~
Post-Transient Simulation Summary
~~~~~~~~~~~~~~~~~~~~~~~~~~~~~~~~~
   -   To further speed up simulation, consider
          add ++aps on command line
~~~~~~~~~~~~~~~~~~~~~~~~~~~~~~~~~


During simulation, the CPU load for active processors is :
         0 (55.4 %)      1 (13.2 %)      2 (14.0 %)      3 (100.0 %)
         4 (100.0 %)     5 (24.5 %)      6 (3.1 %)       7 (100.0 %)
         8 (100.0 %)     9 (100.0 %)    10 (4.0 %)      11 (1.4 %)
        Total: 615.7%
Initial condition solution time: CPU = 41.611 ms, elapsed = 44.4798 ms.
Intrinsic tran analysis time:    CPU = 633.322 ms, elapsed = 728.474 ms.
Opening measure  file: 
        /CASNFSHOME2/home/sstatthoudakis/Documents/spectre/Gates/NAND2/corners/corner_pin2/gate_load/nand_ss.measure
Opening mt file: 
        /CASNFSHOME2/home/sstatthoudakis/Documents/spectre/Gates/NAND2/corners/corner_pin2/gate_load/nand_ss.mt0
Total time required for tran analysis `transient1': CPU = 757.407 ms, elapsed =
        1.00769 s, util. = 75.2%.
Time accumulated: CPU = 1.57621 s, elapsed = 2.59318 s.
Peak resident memory used = 158 Mbytes.


*************************
Alter Group `altergroup1'
*************************
Time for altergroup1: CPU = 19.664 ms, elapsed = 20.0839 ms.
Time accumulated: CPU = 1.59599 s, elapsed = 2.61455 s.
Peak resident memory used = 158 Mbytes.


*****************************************************
Transient Analysis `transient2': time = (0 s -> 2 ns)
*****************************************************

Notice from spectre during IC analysis `timeSweep_cloned_1', during transient
        analysis `transient2'.
    GminDC = 1 pS is large enough to noticeably affect the DC solution.
        dV(ncell1.net15) = -11.4184 mV
        Use the `gmin_check' option to eliminate or expand this report.

DC simulation time: CPU = 42.833 ms, elapsed = 46.6969 ms.

Notice from spectre during transient analysis `transient2'.
    No outputs were found. Loosening output filter criterion to `allpub'.


Opening the PSFXL file ./nand_ss.raw/transient2.tran.tran ...
Important parameter values:
    start = 0 s
    outputstart = 0 s
    stop = 2 ns
    step = 100 fs
    maxstep = 40 ps
    ic = all
    useprevic = no
    skipdc = no
    reltol = 1e-03
    abstol(V) = 1 uV
    abstol(I) = 1 pA
    temp = 50 C
    tnom = 27 C
    tempeffects = all
    errpreset = moderate
    method = traponly
    lteratio = 3.5
    relref = sigglobal
    cmin = 0 F
    gmin = 1 pS


Output and IC/nodeset summary:
                 probe  2       
                 save   3       (current)
                 save   683     (voltage)

......9......8......7......6......5......4......3......2......1......0
Number of accepted tran steps =             194

Maximum value achieved for any signal of each quantity: 
V: V(nfanout4_1.ncell11.2:Q) = 1.047 V
I: I(VVDD:p) = 121.7 uA
If your circuit contains signals of the same quantity that are vastly different
        in size (such as high voltage circuitry combined with low voltage
        control circuitry), you should consider specifying global option
        `bin_relref=yes'.

~~~~~~~~~~~~~~~~~~~~~~~~~~~~~~~~~
Post-Transient Simulation Summary
~~~~~~~~~~~~~~~~~~~~~~~~~~~~~~~~~
   -   To further speed up simulation, consider
          add ++aps on command line
~~~~~~~~~~~~~~~~~~~~~~~~~~~~~~~~~


During simulation, the CPU load for active processors is :
         0 (58.2 %)      1 (11.3 %)      2 (18.0 %)      3 (100.0 %)
         4 (100.0 %)     5 (22.1 %)      6 (9.3 %)       7 (100.0 %)
         8 (100.0 %)     9 (100.0 %)    10 (2.7 %)      11 (2.7 %)
        Total: 624.4%
Initial condition solution time: CPU = 42.91 ms, elapsed = 47.142 ms.
Intrinsic tran analysis time:    CPU = 551.117 ms, elapsed = 643.47 ms.
Opening mt file: 
        /CASNFSHOME2/home/sstatthoudakis/Documents/spectre/Gates/NAND2/corners/corner_pin2/gate_load/nand_ss.mt1
Total time required for tran analysis `transient2': CPU = 602.023 ms, elapsed =
        742.36 ms, util. = 81.1%.
Time accumulated: CPU = 2.22024 s, elapsed = 3.47844 s.
Peak resident memory used = 158 Mbytes.


*************************
Alter Group `altergroup2'
*************************
Time for altergroup2: CPU = 18.413 ms, elapsed = 18.9731 ms.
Time accumulated: CPU = 2.23877 s, elapsed = 3.49869 s.
Peak resident memory used = 158 Mbytes.


*****************************************************
Transient Analysis `transient3': time = (0 s -> 2 ns)
*****************************************************
DC simulation time: CPU = 22.384 ms, elapsed = 22.403 ms.

Notice from spectre during transient analysis `transient3'.
    No outputs were found. Loosening output filter criterion to `allpub'.


Opening the PSFXL file ./nand_ss.raw/transient3.tran.tran ...
Important parameter values:
    start = 0 s
    outputstart = 0 s
    stop = 2 ns
    step = 100 fs
    maxstep = 40 ps
    ic = all
    useprevic = no
    skipdc = no
    reltol = 1e-03
    abstol(V) = 1 uV
    abstol(I) = 1 pA
    temp = 125 C
    tnom = 27 C
    tempeffects = all
    errpreset = moderate
    method = traponly
    lteratio = 3.5
    relref = sigglobal
    cmin = 0 F
    gmin = 1 pS


Output and IC/nodeset summary:
                 probe  2       
                 save   3       (current)
                 save   683     (voltage)

......9......8......7......6......5......4......3......2......1......0
Number of accepted tran steps =             189

Maximum value achieved for any signal of each quantity: 
V: V(nfanout4_1.ncell11.2:Q) = 1.024 V
I: I(VVDD:p) = 105.7 uA
If your circuit contains signals of the same quantity that are vastly different
        in size (such as high voltage circuitry combined with low voltage
        control circuitry), you should consider specifying global option
        `bin_relref=yes'.

~~~~~~~~~~~~~~~~~~~~~~~~~~~~~~~~~
Post-Transient Simulation Summary
~~~~~~~~~~~~~~~~~~~~~~~~~~~~~~~~~
   -   To further speed up simulation, consider
          add ++aps on command line
~~~~~~~~~~~~~~~~~~~~~~~~~~~~~~~~~


During simulation, the CPU load for active processors is :
         0 (49.1 %)      1 (14.3 %)      2 (16.4 %)      3 (100.0 %)
         4 (100.0 %)     5 (27.4 %)      6 (7.7 %)       7 (100.0 %)
         8 (100.0 %)     9 (100.0 %)    10 (2.3 %)      11 (2.8 %)
        Total: 620.1%
Initial condition solution time: CPU = 22.518 ms, elapsed = 30.4921 ms.
Intrinsic tran analysis time:    CPU = 559.575 ms, elapsed = 736.748 ms.
Opening mt file: 
        /CASNFSHOME2/home/sstatthoudakis/Documents/spectre/Gates/NAND2/corners/corner_pin2/gate_load/nand_ss.mt2
Total time required for tran analysis `transient3': CPU = 590.851 ms, elapsed =
        841.226 ms, util. = 70.2%.
Time accumulated: CPU = 2.84319 s, elapsed = 4.45766 s.
Peak resident memory used = 158 Mbytes.


*************************
Alter Group `altergroup3'
*************************
Time for altergroup3: CPU = 17.884 ms, elapsed = 19.2561 ms.
Time accumulated: CPU = 2.86121 s, elapsed = 4.47878 s.
Peak resident memory used = 158 Mbytes.


*****************************************************
Transient Analysis `transient4': time = (0 s -> 2 ns)
*****************************************************

Notice from spectre during IC analysis `timeSweep_cloned_3', during transient
        analysis `transient4'.
    GminDC = 1 pS is large enough to noticeably affect the DC solution.
        dV(nfanout4_10.ncell11.net15) = -22.9304 mV
        Use the `gmin_check' option to eliminate or expand this report.

DC simulation time: CPU = 21.383 ms, elapsed = 23.1712 ms.

Notice from spectre during transient analysis `transient4'.
    No outputs were found. Loosening output filter criterion to `allpub'.


Opening the PSFXL file ./nand_ss.raw/transient4.tran.tran ...
Important parameter values:
    start = 0 s
    outputstart = 0 s
    stop = 2 ns
    step = 100 fs
    maxstep = 40 ps
    ic = all
    useprevic = no
    skipdc = no
    reltol = 1e-03
    abstol(V) = 1 uV
    abstol(I) = 1 pA
    temp = 0 C
    tnom = 27 C
    tempeffects = all
    errpreset = moderate
    method = traponly
    lteratio = 3.5
    relref = sigglobal
    cmin = 0 F
    gmin = 1 pS


Output and IC/nodeset summary:
                 probe  2       
                 save   3       (current)
                 save   683     (voltage)

......9......8......7......6......5......4......3......2......1......0
Number of accepted tran steps =             242

Maximum value achieved for any signal of each quantity: 
V: V(nfanout4_10.ncell13.2:Q) = 1.16 V
I: I(VVDD:p) = 193.5 uA
If your circuit contains signals of the same quantity that are vastly different
        in size (such as high voltage circuitry combined with low voltage
        control circuitry), you should consider specifying global option
        `bin_relref=yes'.

~~~~~~~~~~~~~~~~~~~~~~~~~~~~~~~~~
Post-Transient Simulation Summary
~~~~~~~~~~~~~~~~~~~~~~~~~~~~~~~~~
   -   To further speed up simulation, consider
          add ++aps on command line
~~~~~~~~~~~~~~~~~~~~~~~~~~~~~~~~~


During simulation, the CPU load for active processors is :
         0 (42.7 %)      1 (12.7 %)      2 (28.5 %)      3 (100.0 %)
         4 (100.0 %)     5 (26.8 %)      6 (8.5 %)       7 (100.0 %)
         8 (100.0 %)     9 (100.0 %)    10 (3.6 %)      11 (3.2 %)
        Total: 626.0%
Initial condition solution time: CPU = 21.452 ms, elapsed = 24.3201 ms.
Intrinsic tran analysis time:    CPU = 743.062 ms, elapsed = 829.043 ms.
Opening mt file: 
        /CASNFSHOME2/home/sstatthoudakis/Documents/spectre/Gates/NAND2/corners/corner_pin2/gate_load/nand_ss.mt3
Total time required for tran analysis `transient4': CPU = 772.723 ms, elapsed =
        910.854 ms, util. = 84.8%.
Time accumulated: CPU = 3.64903 s, elapsed = 5.4769 s.
Peak resident memory used = 158 Mbytes.


*************************
Alter Group `altergroup4'
*************************
Time for altergroup4: CPU = 18.948 ms, elapsed = 21.2831 ms.
Time accumulated: CPU = 3.6681 s, elapsed = 5.49926 s.
Peak resident memory used = 158 Mbytes.


*****************************************************
Transient Analysis `transient5': time = (0 s -> 2 ns)
*****************************************************

Notice from spectre during IC analysis `timeSweep_cloned_4', during transient
        analysis `transient5'.
    GminDC = 1 pS is large enough to noticeably affect the DC solution.
        dV(nfanout4_10.ncell11.net15) = -11.4154 mV
        Use the `gmin_check' option to eliminate or expand this report.

DC simulation time: CPU = 23.418 ms, elapsed = 25.147 ms.

Notice from spectre during transient analysis `transient5'.
    No outputs were found. Loosening output filter criterion to `allpub'.


Opening the PSFXL file ./nand_ss.raw/transient5.tran.tran ...
Important parameter values:
    start = 0 s
    outputstart = 0 s
    stop = 2 ns
    step = 100 fs
    maxstep = 40 ps
    ic = all
    useprevic = no
    skipdc = no
    reltol = 1e-03
    abstol(V) = 1 uV
    abstol(I) = 1 pA
    temp = 50 C
    tnom = 27 C
    tempeffects = all
    errpreset = moderate
    method = traponly
    lteratio = 3.5
    relref = sigglobal
    cmin = 0 F
    gmin = 1 pS


Output and IC/nodeset summary:
                 probe  2       
                 save   3       (current)
                 save   683     (voltage)

......9......8......7......6......5......4......3......2......1......0
Number of accepted tran steps =             226

Maximum value achieved for any signal of each quantity: 
V: V(nfanout4_10.ncell13.2:Q) = 1.141 V
I: I(VVDD:p) = 199.1 uA
If your circuit contains signals of the same quantity that are vastly different
        in size (such as high voltage circuitry combined with low voltage
        control circuitry), you should consider specifying global option
        `bin_relref=yes'.

~~~~~~~~~~~~~~~~~~~~~~~~~~~~~~~~~
Post-Transient Simulation Summary
~~~~~~~~~~~~~~~~~~~~~~~~~~~~~~~~~
   -   To further speed up simulation, consider
          add ++aps on command line
~~~~~~~~~~~~~~~~~~~~~~~~~~~~~~~~~


During simulation, the CPU load for active processors is :
         0 (49.8 %)      1 (13.0 %)      2 (26.7 %)      3 (100.0 %)
         4 (98.6 %)      5 (25.0 %)      6 (8.0 %)       7 (100.0 %)
         8 (100.0 %)     9 (100.0 %)    10 (3.4 %)      11 (3.5 %)
        Total: 627.9%
Initial condition solution time: CPU = 23.494 ms, elapsed = 25.547 ms.
Intrinsic tran analysis time:    CPU = 680.8 ms, elapsed = 759.211 ms.
Opening mt file: 
        /CASNFSHOME2/home/sstatthoudakis/Documents/spectre/Gates/NAND2/corners/corner_pin2/gate_load/nand_ss.mt4
Total time required for tran analysis `transient5': CPU = 712.461 ms, elapsed =
        839.552 ms, util. = 84.9%.
Time accumulated: CPU = 4.3991 s, elapsed = 6.49641 s.
Peak resident memory used = 158 Mbytes.


*************************
Alter Group `altergroup5'
*************************
Time for altergroup5: CPU = 21.794 ms, elapsed = 24.3962 ms.
Time accumulated: CPU = 4.42109 s, elapsed = 6.53859 s.
Peak resident memory used = 158 Mbytes.


*****************************************************
Transient Analysis `transient6': time = (0 s -> 2 ns)
*****************************************************
DC simulation time: CPU = 27.099 ms, elapsed = 27.1001 ms.

Notice from spectre during transient analysis `transient6'.
    No outputs were found. Loosening output filter criterion to `allpub'.


Opening the PSFXL file ./nand_ss.raw/transient6.tran.tran ...
Important parameter values:
    start = 0 s
    outputstart = 0 s
    stop = 2 ns
    step = 100 fs
    maxstep = 40 ps
    ic = all
    useprevic = no
    skipdc = no
    reltol = 1e-03
    abstol(V) = 1 uV
    abstol(I) = 1 pA
    temp = 125 C
    tnom = 27 C
    tempeffects = all
    errpreset = moderate
    method = traponly
    lteratio = 3.5
    relref = sigglobal
    cmin = 0 F
    gmin = 1 pS


Output and IC/nodeset summary:
                 probe  2       
                 save   3       (current)
                 save   683     (voltage)

......9......8......7......6......5......4......3......2......1......0
Number of accepted tran steps =             221

Maximum value achieved for any signal of each quantity: 
V: V(nfanout4_10.ncell13.2:Q) = 1.117 V
I: I(VVDD:p) = 195 uA
If your circuit contains signals of the same quantity that are vastly different
        in size (such as high voltage circuitry combined with low voltage
        control circuitry), you should consider specifying global option
        `bin_relref=yes'.

~~~~~~~~~~~~~~~~~~~~~~~~~~~~~~~~~
Post-Transient Simulation Summary
~~~~~~~~~~~~~~~~~~~~~~~~~~~~~~~~~
   -   To further speed up simulation, consider
          add ++aps on command line
~~~~~~~~~~~~~~~~~~~~~~~~~~~~~~~~~


During simulation, the CPU load for active processors is :
         0 (46.5 %)      1 (22.0 %)      2 (25.4 %)      3 (100.0 %)
         4 (94.2 %)      5 (21.6 %)      6 (7.5 %)       7 (100.0 %)
         8 (100.0 %)     9 (100.0 %)    10 (3.1 %)      11 (3.3 %)
        Total: 623.5%
Initial condition solution time: CPU = 27.212 ms, elapsed = 27.9288 ms.
Intrinsic tran analysis time:    CPU = 661.137 ms, elapsed = 798.724 ms.
Opening mt file: 
        /CASNFSHOME2/home/sstatthoudakis/Documents/spectre/Gates/NAND2/corners/corner_pin2/gate_load/nand_ss.mt5
Total time required for tran analysis `transient6': CPU = 698.516 ms, elapsed =
        889.862 ms, util. = 78.5%.
Time accumulated: CPU = 5.14114 s, elapsed = 7.55464 s.
Peak resident memory used = 158 Mbytes.


*************************
Alter Group `altergroup6'
*************************
Time for altergroup6: CPU = 18.231 ms, elapsed = 18.558 ms.
Time accumulated: CPU = 5.15955 s, elapsed = 7.57455 s.
Peak resident memory used = 158 Mbytes.


*****************************************************
Transient Analysis `transient7': time = (0 s -> 2 ns)
*****************************************************

Notice from spectre during IC analysis `timeSweep_cloned_6', during transient
        analysis `transient7'.
    GminDC = 1 pS is large enough to noticeably affect the DC solution.
        dV(nfanout4_10.ncell11.net15) = -22.9206 mV
        Use the `gmin_check' option to eliminate or expand this report.

DC simulation time: CPU = 27.891 ms, elapsed = 29.2759 ms.

Notice from spectre during transient analysis `transient7'.
    No outputs were found. Loosening output filter criterion to `allpub'.


Opening the PSFXL file ./nand_ss.raw/transient7.tran.tran ...
Important parameter values:
    start = 0 s
    outputstart = 0 s
    stop = 2 ns
    step = 100 fs
    maxstep = 40 ps
    ic = all
    useprevic = no
    skipdc = no
    reltol = 1e-03
    abstol(V) = 1 uV
    abstol(I) = 1 pA
    temp = 0 C
    tnom = 27 C
    tempeffects = all
    errpreset = moderate
    method = traponly
    lteratio = 3.5
    relref = sigglobal
    cmin = 0 F
    gmin = 1 pS


Output and IC/nodeset summary:
                 probe  2       
                 save   3       (current)
                 save   683     (voltage)

......9......8......7......6......5......4......3......2......1......0
Number of accepted tran steps =             280

Maximum value achieved for any signal of each quantity: 
V: V(nfanout4_10.ncell13.2:Q) = 1.249 V
I: I(VVDD:p) = 250.1 uA
If your circuit contains signals of the same quantity that are vastly different
        in size (such as high voltage circuitry combined with low voltage
        control circuitry), you should consider specifying global option
        `bin_relref=yes'.

~~~~~~~~~~~~~~~~~~~~~~~~~~~~~~~~~
Post-Transient Simulation Summary
~~~~~~~~~~~~~~~~~~~~~~~~~~~~~~~~~
   -   To further speed up simulation, consider
          add ++aps on command line
~~~~~~~~~~~~~~~~~~~~~~~~~~~~~~~~~


During simulation, the CPU load for active processors is :
         0 (52.6 %)      1 (31.1 %)      2 (23.1 %)      3 (100.0 %)
         4 (83.3 %)      5 (19.9 %)      6 (7.2 %)       7 (100.0 %)
         8 (100.0 %)     9 (100.0 %)    10 (5.1 %)      11 (3.3 %)
        Total: 625.7%
Initial condition solution time: CPU = 27.972 ms, elapsed = 29.839 ms.
Intrinsic tran analysis time:    CPU = 852.824 ms, elapsed = 1.03756 s.
Opening mt file: 
        /CASNFSHOME2/home/sstatthoudakis/Documents/spectre/Gates/NAND2/corners/corner_pin2/gate_load/nand_ss.mt6
Total time required for tran analysis `transient7': CPU = 889.177 ms, elapsed =
        1.12219 s, util. = 79.2%.
Time accumulated: CPU = 6.06485 s, elapsed = 8.81692 s.
Peak resident memory used = 164 Mbytes.


*************************
Alter Group `altergroup7'
*************************
Time for altergroup7: CPU = 18.437 ms, elapsed = 19.0511 ms.
Time accumulated: CPU = 6.08342 s, elapsed = 8.83818 s.
Peak resident memory used = 164 Mbytes.


*****************************************************
Transient Analysis `transient8': time = (0 s -> 2 ns)
*****************************************************

Notice from spectre during IC analysis `timeSweep_cloned_7', during transient
        analysis `transient8'.
    GminDC = 1 pS is large enough to noticeably affect the DC solution.
        dV(nfanout4_10.ncell11.net15) = -11.3687 mV
        Use the `gmin_check' option to eliminate or expand this report.

DC simulation time: CPU = 27.991 ms, elapsed = 30.5271 ms.

Notice from spectre during transient analysis `transient8'.
    No outputs were found. Loosening output filter criterion to `allpub'.


Opening the PSFXL file ./nand_ss.raw/transient8.tran.tran ...
Important parameter values:
    start = 0 s
    outputstart = 0 s
    stop = 2 ns
    step = 100 fs
    maxstep = 40 ps
    ic = all
    useprevic = no
    skipdc = no
    reltol = 1e-03
    abstol(V) = 1 uV
    abstol(I) = 1 pA
    temp = 50 C
    tnom = 27 C
    tempeffects = all
    errpreset = moderate
    method = traponly
    lteratio = 3.5
    relref = sigglobal
    cmin = 0 F
    gmin = 1 pS


Output and IC/nodeset summary:
                 probe  2       
                 save   3       (current)
                 save   683     (voltage)

......9......8......7......6......5......4......3......2......1......0
Number of accepted tran steps =             266

Maximum value achieved for any signal of each quantity: 
V: V(nfanout4_10.ncell12.2:Q) = 1.233 V
I: I(VVDD:p) = 251.8 uA
If your circuit contains signals of the same quantity that are vastly different
        in size (such as high voltage circuitry combined with low voltage
        control circuitry), you should consider specifying global option
        `bin_relref=yes'.

~~~~~~~~~~~~~~~~~~~~~~~~~~~~~~~~~
Post-Transient Simulation Summary
~~~~~~~~~~~~~~~~~~~~~~~~~~~~~~~~~
   -   To further speed up simulation, consider
          add ++aps on command line
~~~~~~~~~~~~~~~~~~~~~~~~~~~~~~~~~


During simulation, the CPU load for active processors is :
         0 (58.0 %)      1 (36.7 %)      2 (21.6 %)      3 (100.0 %)
         4 (73.9 %)      5 (19.6 %)      6 (9.3 %)       7 (100.0 %)
         8 (100.0 %)     9 (100.0 %)    10 (5.3 %)      11 (3.5 %)
        Total: 627.9%
Initial condition solution time: CPU = 28.057 ms, elapsed = 31.249 ms.
Intrinsic tran analysis time:    CPU = 798.426 ms, elapsed = 876.604 ms.
Opening mt file: 
        /CASNFSHOME2/home/sstatthoudakis/Documents/spectre/Gates/NAND2/corners/corner_pin2/gate_load/nand_ss.mt7
Total time required for tran analysis `transient8': CPU = 837.761 ms, elapsed =
        975.665 ms, util. = 85.9%.
Time accumulated: CPU = 6.94182 s, elapsed = 9.96248 s.
Peak resident memory used = 164 Mbytes.


*************************
Alter Group `altergroup8'
*************************
Time for altergroup8: CPU = 21.344 ms, elapsed = 21.7509 ms.
Time accumulated: CPU = 6.96329 s, elapsed = 9.9858 s.
Peak resident memory used = 164 Mbytes.


*****************************************************
Transient Analysis `transient9': time = (0 s -> 2 ns)
*****************************************************
DC simulation time: CPU = 24.195 ms, elapsed = 24.199 ms.

Notice from spectre during transient analysis `transient9'.
    No outputs were found. Loosening output filter criterion to `allpub'.


Opening the PSFXL file ./nand_ss.raw/transient9.tran.tran ...
Important parameter values:
    start = 0 s
    outputstart = 0 s
    stop = 2 ns
    step = 100 fs
    maxstep = 40 ps
    ic = all
    useprevic = no
    skipdc = no
    reltol = 1e-03
    abstol(V) = 1 uV
    abstol(I) = 1 pA
    temp = 125 C
    tnom = 27 C
    tempeffects = all
    errpreset = moderate
    method = traponly
    lteratio = 3.5
    relref = sigglobal
    cmin = 0 F
    gmin = 1 pS


Output and IC/nodeset summary:
                 probe  2       
                 save   3       (current)
                 save   683     (voltage)

......9......8......7......6......5......4......3......2......1......0
Number of accepted tran steps =             244

Maximum value achieved for any signal of each quantity: 
V: V(nfanout4_10.ncell13.2:Q) = 1.21 V
I: I(VVDD:p) = 218.9 uA
If your circuit contains signals of the same quantity that are vastly different
        in size (such as high voltage circuitry combined with low voltage
        control circuitry), you should consider specifying global option
        `bin_relref=yes'.

~~~~~~~~~~~~~~~~~~~~~~~~~~~~~~~~~
Post-Transient Simulation Summary
~~~~~~~~~~~~~~~~~~~~~~~~~~~~~~~~~
   -   To further speed up simulation, consider
          add ++aps on command line
~~~~~~~~~~~~~~~~~~~~~~~~~~~~~~~~~


During simulation, the CPU load for active processors is :
         0 (62.3 %)      1 (40.7 %)      2 (19.7 %)      3 (100.0 %)
         4 (66.7 %)      5 (18.4 %)      6 (11.5 %)      7 (100.0 %)
         8 (100.0 %)     9 (100.0 %)    10 (5.2 %)      11 (3.3 %)
        Total: 627.9%
Initial condition solution time: CPU = 24.32 ms, elapsed = 25.0661 ms.
Intrinsic tran analysis time:    CPU = 748.379 ms, elapsed = 842.026 ms.
Opening mt file: 
        /CASNFSHOME2/home/sstatthoudakis/Documents/spectre/Gates/NAND2/corners/corner_pin2/gate_load/nand_ss.mt8
Total time required for tran analysis `transient9': CPU = 781.672 ms, elapsed =
        936.303 ms, util. = 83.5%.
Time accumulated: CPU = 7.76075 s, elapsed = 11.0472 s.
Peak resident memory used = 164 Mbytes.


*************************
Alter Group `altergroup9'
*************************
Time for altergroup9: CPU = 17.542 ms, elapsed = 17.8099 ms.
Time accumulated: CPU = 7.77843 s, elapsed = 11.0661 s.
Peak resident memory used = 164 Mbytes.


******************************************************
Transient Analysis `transient10': time = (0 s -> 2 ns)
******************************************************

Notice from spectre during IC analysis `timeSweep_cloned_9', during transient
        analysis `transient10'.
    GminDC = 1 pS is large enough to noticeably affect the DC solution.
        dV(nfanout4_10.ncell11.net15) = -22.8758 mV
        Use the `gmin_check' option to eliminate or expand this report.

DC simulation time: CPU = 28.629 ms, elapsed = 30.4079 ms.

Notice from spectre during transient analysis `transient10'.
    No outputs were found. Loosening output filter criterion to `allpub'.


Opening the PSFXL file ./nand_ss.raw/transient10.tran.tran ...
Important parameter values:
    start = 0 s
    outputstart = 0 s
    stop = 2 ns
    step = 100 fs
    maxstep = 40 ps
    ic = all
    useprevic = no
    skipdc = no
    reltol = 1e-03
    abstol(V) = 1 uV
    abstol(I) = 1 pA
    temp = 0 C
    tnom = 27 C
    tempeffects = all
    errpreset = moderate
    method = traponly
    lteratio = 3.5
    relref = sigglobal
    cmin = 0 F
    gmin = 1 pS


Output and IC/nodeset summary:
                 probe  2       
                 save   3       (current)
                 save   683     (voltage)

......9......8......7......6......5......4......3......2......1......0
Number of accepted tran steps =             312

Maximum value achieved for any signal of each quantity: 
V: V(nfanout4_10.ncell13.2:Q) = 1.333 V
I: I(VGND:p) = 181.3 uA
If your circuit contains signals of the same quantity that are vastly different
        in size (such as high voltage circuitry combined with low voltage
        control circuitry), you should consider specifying global option
        `bin_relref=yes'.

~~~~~~~~~~~~~~~~~~~~~~~~~~~~~~~~~
Post-Transient Simulation Summary
~~~~~~~~~~~~~~~~~~~~~~~~~~~~~~~~~
   -   To further speed up simulation, consider
          add ++aps on command line
~~~~~~~~~~~~~~~~~~~~~~~~~~~~~~~~~


During simulation, the CPU load for active processors is :
         0 (66.6 %)      1 (44.7 %)      2 (17.7 %)      3 (100.0 %)
         4 (59.2 %)      5 (16.6 %)      6 (12.5 %)      7 (100.0 %)
         8 (100.0 %)     9 (100.0 %)    10 (4.8 %)      11 (3.1 %)
        Total: 625.2%
Initial condition solution time: CPU = 28.697 ms, elapsed = 30.8979 ms.
Intrinsic tran analysis time:    CPU = 963.559 ms, elapsed = 1.15287 s.
Opening mt file: 
        /CASNFSHOME2/home/sstatthoudakis/Documents/spectre/Gates/NAND2/corners/corner_pin2/gate_load/nand_ss.mt9
Total time required for tran analysis `transient10': CPU = 1.00138 s, elapsed =
        1.2406 s, util. = 80.7%.
Time accumulated: CPU = 8.79932 s, elapsed = 12.4087 s.
Peak resident memory used = 164 Mbytes.


**************************
Alter Group `altergroup10'
**************************
Time for altergroup10: CPU = 21.691 ms, elapsed = 22.0649 ms.
Time accumulated: CPU = 8.82112 s, elapsed = 12.4318 s.
Peak resident memory used = 164 Mbytes.


******************************************************
Transient Analysis `transient11': time = (0 s -> 2 ns)
******************************************************

Notice from spectre during IC analysis `timeSweep_cloned_10', during transient
        analysis `transient11'.
    GminDC = 1 pS is large enough to noticeably affect the DC solution.
        dV(nfanout4_10.ncell11.net15) = -11.2863 mV
        Use the `gmin_check' option to eliminate or expand this report.

DC simulation time: CPU = 27.63 ms, elapsed = 30.165 ms.

Notice from spectre during transient analysis `transient11'.
    No outputs were found. Loosening output filter criterion to `allpub'.


Opening the PSFXL file ./nand_ss.raw/transient11.tran.tran ...
Important parameter values:
    start = 0 s
    outputstart = 0 s
    stop = 2 ns
    step = 100 fs
    maxstep = 40 ps
    ic = all
    useprevic = no
    skipdc = no
    reltol = 1e-03
    abstol(V) = 1 uV
    abstol(I) = 1 pA
    temp = 50 C
    tnom = 27 C
    tempeffects = all
    errpreset = moderate
    method = traponly
    lteratio = 3.5
    relref = sigglobal
    cmin = 0 F
    gmin = 1 pS


Output and IC/nodeset summary:
                 probe  2       
                 save   3       (current)
                 save   683     (voltage)

......9......8......7......6......5......4......3......2......1......0
Number of accepted tran steps =             289

Maximum value achieved for any signal of each quantity: 
V: V(nfanout4_10.ncell13.2:Q) = 1.322 V
I: I(VVDD:p) = 172.9 uA
If your circuit contains signals of the same quantity that are vastly different
        in size (such as high voltage circuitry combined with low voltage
        control circuitry), you should consider specifying global option
        `bin_relref=yes'.

~~~~~~~~~~~~~~~~~~~~~~~~~~~~~~~~~
Post-Transient Simulation Summary
~~~~~~~~~~~~~~~~~~~~~~~~~~~~~~~~~
   -   To further speed up simulation, consider
          add ++aps on command line
~~~~~~~~~~~~~~~~~~~~~~~~~~~~~~~~~


During simulation, the CPU load for active processors is :
         0 (69.6 %)      1 (48.1 %)      2 (17.3 %)      3 (100.0 %)
         4 (54.5 %)      5 (15.5 %)      6 (11.8 %)      7 (100.0 %)
         8 (100.0 %)     9 (100.0 %)    10 (4.5 %)      11 (3.1 %)
        Total: 624.3%
Initial condition solution time: CPU = 27.712 ms, elapsed = 30.473 ms.
Intrinsic tran analysis time:    CPU = 899.641 ms, elapsed = 966.214 ms.
Opening mt file: 
        /CASNFSHOME2/home/sstatthoudakis/Documents/spectre/Gates/NAND2/corners/corner_pin2/gate_load/nand_ss.mt10
Total time required for tran analysis `transient11': CPU = 935.861 ms, elapsed
        = 1.0731 s, util. = 87.2%.
Time accumulated: CPU = 9.77478 s, elapsed = 13.6236 s.
Peak resident memory used = 164 Mbytes.


**************************
Alter Group `altergroup11'
**************************
Time for altergroup11: CPU = 17.56 ms, elapsed = 18.1651 ms.
Time accumulated: CPU = 9.79247 s, elapsed = 13.6442 s.
Peak resident memory used = 164 Mbytes.


******************************************************
Transient Analysis `transient12': time = (0 s -> 2 ns)
******************************************************
DC simulation time: CPU = 22.839 ms, elapsed = 22.8438 ms.

Notice from spectre during transient analysis `transient12'.
    No outputs were found. Loosening output filter criterion to `allpub'.


Opening the PSFXL file ./nand_ss.raw/transient12.tran.tran ...
Important parameter values:
    start = 0 s
    outputstart = 0 s
    stop = 2 ns
    step = 100 fs
    maxstep = 40 ps
    ic = all
    useprevic = no
    skipdc = no
    reltol = 1e-03
    abstol(V) = 1 uV
    abstol(I) = 1 pA
    temp = 125 C
    tnom = 27 C
    tempeffects = all
    errpreset = moderate
    method = traponly
    lteratio = 3.5
    relref = sigglobal
    cmin = 0 F
    gmin = 1 pS


Output and IC/nodeset summary:
                 probe  2       
                 save   3       (current)
                 save   683     (voltage)

......9......8......7......6......5......4......3......2......1......0
Number of accepted tran steps =             273

Maximum value achieved for any signal of each quantity: 
V: V(nfanout4_1.ncell13.2:Q) = 1.303 V
I: I(VVDD:p) = 166 uA
If your circuit contains signals of the same quantity that are vastly different
        in size (such as high voltage circuitry combined with low voltage
        control circuitry), you should consider specifying global option
        `bin_relref=yes'.

~~~~~~~~~~~~~~~~~~~~~~~~~~~~~~~~~
Post-Transient Simulation Summary
~~~~~~~~~~~~~~~~~~~~~~~~~~~~~~~~~
   -   To further speed up simulation, consider
          add ++aps on command line
~~~~~~~~~~~~~~~~~~~~~~~~~~~~~~~~~


During simulation, the CPU load for active processors is :
         0 (72.0 %)      1 (50.5 %)      2 (16.0 %)      3 (100.0 %)
         4 (50.5 %)      5 (15.3 %)      6 (10.9 %)      7 (100.0 %)
         8 (100.0 %)     9 (100.0 %)    10 (4.2 %)      11 (3.1 %)
        Total: 622.5%
Initial condition solution time: CPU = 22.969 ms, elapsed = 23.69 ms.
Intrinsic tran analysis time:    CPU = 831.039 ms, elapsed = 921.729 ms.
Opening mt file: 
        /CASNFSHOME2/home/sstatthoudakis/Documents/spectre/Gates/NAND2/corners/corner_pin2/gate_load/nand_ss.mt11
Total time required for tran analysis `transient12': CPU = 862.365 ms, elapsed
        = 1.00097 s, util. = 86.2%.
Time accumulated: CPU = 10.6711 s, elapsed = 14.7573 s.
Peak resident memory used = 164 Mbytes.


**************************
Alter Group `altergroup12'
**************************
Time for altergroup12: CPU = 17.636 ms, elapsed = 18.002 ms.
Time accumulated: CPU = 10.6889 s, elapsed = 14.7764 s.
Peak resident memory used = 164 Mbytes.


******************************************************
Transient Analysis `transient13': time = (0 s -> 2 ns)
******************************************************

Notice from spectre during IC analysis `timeSweep_cloned_12', during transient
        analysis `transient13'.
    GminDC = 1 pS is large enough to noticeably affect the DC solution.
        dV(nfanout4_10.ncell12.net15) = -22.7981 mV
        Use the `gmin_check' option to eliminate or expand this report.

DC simulation time: CPU = 27.787 ms, elapsed = 29.6872 ms.

Notice from spectre during transient analysis `transient13'.
    No outputs were found. Loosening output filter criterion to `allpub'.


Opening the PSFXL file ./nand_ss.raw/transient13.tran.tran ...
Important parameter values:
    start = 0 s
    outputstart = 0 s
    stop = 2 ns
    step = 100 fs
    maxstep = 40 ps
    ic = all
    useprevic = no
    skipdc = no
    reltol = 1e-03
    abstol(V) = 1 uV
    abstol(I) = 1 pA
    temp = 0 C
    tnom = 27 C
    tempeffects = all
    errpreset = moderate
    method = traponly
    lteratio = 3.5
    relref = sigglobal
    cmin = 0 F
    gmin = 1 pS


Output and IC/nodeset summary:
                 probe  2       
                 save   3       (current)
                 save   683     (voltage)

......9......8......7......6......5......4......3......2......1......0
Number of accepted tran steps =             329

Maximum value achieved for any signal of each quantity: 
V: V(nfanout4_10.ncell13.2:Q) = 1.42 V
I: I(VVDD:p) = 222.6 uA
If your circuit contains signals of the same quantity that are vastly different
        in size (such as high voltage circuitry combined with low voltage
        control circuitry), you should consider specifying global option
        `bin_relref=yes'.

~~~~~~~~~~~~~~~~~~~~~~~~~~~~~~~~~
Post-Transient Simulation Summary
~~~~~~~~~~~~~~~~~~~~~~~~~~~~~~~~~
   -   To further speed up simulation, consider
          add ++aps on command line
~~~~~~~~~~~~~~~~~~~~~~~~~~~~~~~~~


During simulation, the CPU load for active processors is :
         0 (74.3 %)      1 (49.7 %)      2 (15.0 %)      3 (100.0 %)
         4 (50.2 %)      5 (14.5 %)      6 (11.6 %)      7 (100.0 %)
         8 (100.0 %)     9 (100.0 %)    10 (4.0 %)      11 (2.8 %)
        Total: 622.1%
Initial condition solution time: CPU = 27.856 ms, elapsed = 30.205 ms.
Intrinsic tran analysis time:    CPU = 1.02488 s, elapsed = 1.12034 s.
Opening mt file: 
        /CASNFSHOME2/home/sstatthoudakis/Documents/spectre/Gates/NAND2/corners/corner_pin2/gate_load/nand_ss.mt12
Total time required for tran analysis `transient13': CPU = 1.06155 s, elapsed =
        1.20139 s, util. = 88.4%.
Time accumulated: CPU = 11.7731 s, elapsed = 16.1219 s.
Peak resident memory used = 164 Mbytes.


**************************
Alter Group `altergroup13'
**************************
Time for altergroup13: CPU = 23.763 ms, elapsed = 24.3661 ms.
Time accumulated: CPU = 11.7972 s, elapsed = 16.1481 s.
Peak resident memory used = 164 Mbytes.


******************************************************
Transient Analysis `transient14': time = (0 s -> 2 ns)
******************************************************

Notice from spectre during IC analysis `timeSweep_cloned_13', during transient
        analysis `transient14'.
    GminDC = 1 pS is large enough to noticeably affect the DC solution.
        dV(nfanout4_10.ncell11.net15) = -11.174 mV
        Use the `gmin_check' option to eliminate or expand this report.

DC simulation time: CPU = 25.037 ms, elapsed = 26.2179 ms.

Notice from spectre during transient analysis `transient14'.
    No outputs were found. Loosening output filter criterion to `allpub'.


Opening the PSFXL file ./nand_ss.raw/transient14.tran.tran ...
Important parameter values:
    start = 0 s
    outputstart = 0 s
    stop = 2 ns
    step = 100 fs
    maxstep = 40 ps
    ic = all
    useprevic = no
    skipdc = no
    reltol = 1e-03
    abstol(V) = 1 uV
    abstol(I) = 1 pA
    temp = 50 C
    tnom = 27 C
    tempeffects = all
    errpreset = moderate
    method = traponly
    lteratio = 3.5
    relref = sigglobal
    cmin = 0 F
    gmin = 1 pS


Output and IC/nodeset summary:
                 probe  2       
                 save   3       (current)
                 save   683     (voltage)

......9......8......7......6......5......4......3......2......1......0
Number of accepted tran steps =             301

Maximum value achieved for any signal of each quantity: 
V: V(nfanout4_10.ncell13.2:Q) = 1.412 V
I: I(VVDD:p) = 208.3 uA
If your circuit contains signals of the same quantity that are vastly different
        in size (such as high voltage circuitry combined with low voltage
        control circuitry), you should consider specifying global option
        `bin_relref=yes'.

~~~~~~~~~~~~~~~~~~~~~~~~~~~~~~~~~
Post-Transient Simulation Summary
~~~~~~~~~~~~~~~~~~~~~~~~~~~~~~~~~
   -   To further speed up simulation, consider
          add ++aps on command line
~~~~~~~~~~~~~~~~~~~~~~~~~~~~~~~~~


During simulation, the CPU load for active processors is :
         0 (76.2 %)      1 (47.2 %)      2 (14.4 %)      3 (100.0 %)
         4 (52.5 %)      5 (14.2 %)      6 (11.1 %)      7 (100.0 %)
         8 (100.0 %)     9 (100.0 %)    10 (4.0 %)      11 (2.7 %)
        Total: 622.2%
Initial condition solution time: CPU = 25.107 ms, elapsed = 26.5279 ms.
Intrinsic tran analysis time:    CPU = 915.702 ms, elapsed = 979.912 ms.
Opening mt file: 
        /CASNFSHOME2/home/sstatthoudakis/Documents/spectre/Gates/NAND2/corners/corner_pin2/gate_load/nand_ss.mt13
Total time required for tran analysis `transient14': CPU = 948.997 ms, elapsed
        = 1.05392 s, util. = 90%.
Time accumulated: CPU = 12.772 s, elapsed = 17.3152 s.
Peak resident memory used = 164 Mbytes.


**************************
Alter Group `altergroup14'
**************************
Time for altergroup14: CPU = 19.124 ms, elapsed = 19.5172 ms.
Time accumulated: CPU = 12.7913 s, elapsed = 17.3358 s.
Peak resident memory used = 164 Mbytes.


******************************************************
Transient Analysis `transient15': time = (0 s -> 2 ns)
******************************************************
DC simulation time: CPU = 23.043 ms, elapsed = 23.0482 ms.

Notice from spectre during transient analysis `transient15'.
    No outputs were found. Loosening output filter criterion to `allpub'.


Opening the PSFXL file ./nand_ss.raw/transient15.tran.tran ...
Important parameter values:
    start = 0 s
    outputstart = 0 s
    stop = 2 ns
    step = 100 fs
    maxstep = 40 ps
    ic = all
    useprevic = no
    skipdc = no
    reltol = 1e-03
    abstol(V) = 1 uV
    abstol(I) = 1 pA
    temp = 125 C
    tnom = 27 C
    tempeffects = all
    errpreset = moderate
    method = traponly
    lteratio = 3.5
    relref = sigglobal
    cmin = 0 F
    gmin = 1 pS


Output and IC/nodeset summary:
                 probe  2       
                 save   3       (current)
                 save   683     (voltage)

......9......8......7......6......5......4......3......2......1......0
Number of accepted tran steps =             285

Maximum value achieved for any signal of each quantity: 
V: V(nfanout4_1.ncell11.2:Q) = 1.399 V
I: I(VVDD:p) = 198 uA
If your circuit contains signals of the same quantity that are vastly different
        in size (such as high voltage circuitry combined with low voltage
        control circuitry), you should consider specifying global option
        `bin_relref=yes'.

~~~~~~~~~~~~~~~~~~~~~~~~~~~~~~~~~
Post-Transient Simulation Summary
~~~~~~~~~~~~~~~~~~~~~~~~~~~~~~~~~
   -   To further speed up simulation, consider
          add ++aps on command line
~~~~~~~~~~~~~~~~~~~~~~~~~~~~~~~~~


During simulation, the CPU load for active processors is :
         0 (77.6 %)      1 (44.3 %)      2 (13.7 %)      3 (100.0 %)
         4 (54.3 %)      5 (14.7 %)      6 (10.5 %)      7 (100.0 %)
         8 (100.0 %)     9 (100.0 %)    10 (4.1 %)      11 (2.6 %)
        Total: 621.9%
Initial condition solution time: CPU = 23.167 ms, elapsed = 23.7439 ms.
Intrinsic tran analysis time:    CPU = 836.505 ms, elapsed = 914.927 ms.
Opening mt file: 
        /CASNFSHOME2/home/sstatthoudakis/Documents/spectre/Gates/NAND2/corners/corner_pin2/gate_load/nand_ss.mt14
Total time required for tran analysis `transient15': CPU = 870.457 ms, elapsed
        = 994.376 ms, util. = 87.5%.
Time accumulated: CPU = 13.698 s, elapsed = 18.5154 s.
Peak resident memory used = 164 Mbytes.

Licensing Information:
Lic Summary:
[15:49:47.463496] Cdslmd servers:5280@10.64.82.10
[15:49:47.463555] Feature usage summary:
[15:49:47.463555] Virtuoso_Multi_mode_Simulation


Aggregate audit (3:49:47 PM, Wed Oct 29, 2025):
Time used: CPU = 13.8 s, elapsed = 18.6 s, util. = 74%.
Time spent in licensing: elapsed = 31.9 ms.
Peak memory used = 164 Mbytes.
Simulation started at: 3:49:29 PM, Wed Oct 29, 2025, ended at: 3:49:47 PM, Wed
        Oct 29, 2025, with elapsed time (wall clock): 18.6 s.
spectre completes with 0 errors, 12 warnings, and 28 notices.
