
Spectre (R) Circuit Simulator
Version 23.1.0.242.isr1 64bit -- 7 Sep 2023
Copyright (C) 1989-2023 Cadence Design Systems, Inc. All rights reserved
        worldwide. Cadence and Spectre are registered trademarks of Cadence
        Design Systems, Inc. All others are the property of their respective
        holders.

Includes RSA BSAFE(R) Cryptographic or Security Protocol Software from RSA
        Security, Inc.

User: sstatthoudakis   Host: torreyridge   HostID: 7F0100   PID: 31024
Memory  available: 104.4400 GB  physical: 135.0278 GB
Linux   : CentOS Linux release 7 (Core)
CPU Type: Intel(R) Xeon(R) Silver 4114 CPU @ 2.20GHz
All processors running at 2194.8 MHz
        Socket: Processors
        0:       0
        2:       1
        4:       2
        6:       3
        8:       4
        10:      5
        12:      6
        14:      7
        16:      8
        18:      9
        20:     10
        22:     11
        
System load averages (1min, 5min, 15min) : 26.4 %, 26.8 %, 25.0 %
This is a virtual machine


Simulating `nor_ss.scs' on torreyridge at 2:47:35 PM, Wed Oct 29, 2025 (process
        id: 31024).
Current working directory:
        /CASNFSHOME2/home/sstatthoudakis/Documents/spectre/Gates/NOR2/nor_validate/corners/corner_pin2/wire_load
Command line:
     \
        /CASNFSHOME/home/edatools/cadence/2023-24/RHELx86/SPECTRE_23.10.242/tools.lnx86/bin/spectre
        \
        -64 nor_ss.scs
Licensing Information:
[14:47:35.231873] Configured Lic search path (22.01-s002): 5280@10.64.82.10

Licensing Information:
[14:47:36.020507] Periodic Lic check successful

Reading file: 
        /CASNFSHOME2/home/sstatthoudakis/Documents/spectre/Gates/NOR2/nor_validate/corners/corner_pin2/wire_load/nor_ss.scs
Reading file: 
        /CASNFSHOME/home/edatools/cadence/2023-24/RHELx86/SPECTRE_23.10.242/tools.lnx86/spectre/etc/configs/spectre.cfg
Reading file: 
        /CASNFSHOME/home/tsaikaterini/IHP/IHP_Generation_files/130ng/ihp013ng_include_all_slow.scs
Reading file: 
        /CASNFSHOME/home/tsaikaterini/IHP/IHP_Generation_files/130ng/SG13S_618_rev1.12.15/tech/SG13_HBT/VBIC/spectre/SG13_cornerBIP.scs
Reading file: 
        /CASNFSHOME/home/tsaikaterini/IHP/IHP_Generation_files/130ng/SG13S_618_rev1.12.15/tech/SG13_HBT/VBIC/spectre/SG13_hbt_mm.scs
Reading file: 
        /CASNFSHOME/home/tsaikaterini/IHP/IHP_Generation_files/130ng/SG13S_618_rev1.12.15/tech/SG13_HBT/VBIC/spectre/SG13_hbt.lib
Reading file: 
        /CASNFSHOME/home/tsaikaterini/IHP/IHP_Generation_files/130ng/SG13S_618_rev1.12.15/tech/SG13_HBT/VBIC/spectre/SG13_hbt_stat.scs
Reading file: 
        /CASNFSHOME/home/tsaikaterini/IHP/IHP_Generation_files/130ng/SG13S_618_rev1.12.15/tech/SG13_MOS/library/spectre/cornerMOSlv_psp.scs
Reading file: 
        /CASNFSHOME/home/tsaikaterini/IHP/IHP_Generation_files/130ng/SG13S_618_rev1.12.15/tech/SG13_MOS/library/spectre/sg13_moslv_psp_stat.scs
Reading file: 
        /CASNFSHOME/home/tsaikaterini/IHP/IHP_Generation_files/130ng/SG13S_618_rev1.12.15/tech/SG13_MOS/library/spectre/sg13_moslv_psp_mod.lib
Reading file: 
        /CASNFSHOME/home/tsaikaterini/IHP/IHP_Generation_files/130ng/SG13S_618_rev1.12.15/tech/SG13_MOS/library/spectre/sg13_moslv_psp_parm.scs
Reading file: 
        /CASNFSHOME/home/tsaikaterini/IHP/IHP_Generation_files/130ng/SG13S_618_rev1.12.15/tech/SG13_MOS/library/spectre/cornerMOShv_psp.scs
Reading file: 
        /CASNFSHOME/home/tsaikaterini/IHP/IHP_Generation_files/130ng/SG13S_618_rev1.12.15/tech/SG13_MOS/library/spectre/sg13_moshv_psp_stat.scs
Reading file: 
        /CASNFSHOME/home/tsaikaterini/IHP/IHP_Generation_files/130ng/SG13S_618_rev1.12.15/tech/SG13_MOS/library/spectre/sg13_moshv_psp_mod.lib
Reading file: 
        /CASNFSHOME/home/tsaikaterini/IHP/IHP_Generation_files/130ng/SG13S_618_rev1.12.15/tech/SG13_MOS/library/spectre/sg13_moshv_psp_parm.scs

Warning from spectre in `nmoselt', during circuit read-in.
    WARNING (SFE-2296):
        "/CASNFSHOME/home/tsaikaterini/IHP/IHP_Generation_files/130ng/SG13S_618_rev1.12.15/tech/SG13_MOS/library/spectre/sg13_moshv_psp_mod.lib"
        79: The inline subckt definition `nmoselt' does not contain any inline
        components. The `inline' qualifier will therefore be ignored.

Reading file: 
        /CASNFSHOME/home/tsaikaterini/IHP/IHP_Generation_files/130ng/SG13S_618_rev1.12.15/tech/SG13_MOS/library/spectre/sg13_svaricaphv_mosvar_mod.lib
Reading file: 
        /CASNFSHOME/home/tsaikaterini/IHP/IHP_Generation_files/130ng/SG13S_618_rev1.12.15/tech/SG13_PASSIVES/spectre/SG13_cornerRES.scs
Reading file: 
        /CASNFSHOME/home/tsaikaterini/IHP/IHP_Generation_files/130ng/SG13S_618_rev1.12.15/tech/SG13_PASSIVES/spectre/SG13_res_mm.scs
Reading file: 
        /CASNFSHOME/home/tsaikaterini/IHP/IHP_Generation_files/130ng/SG13S_618_rev1.12.15/tech/SG13_PASSIVES/spectre/SG13_res_stat.scs
Reading file: 
        /CASNFSHOME/home/tsaikaterini/IHP/IHP_Generation_files/130ng/SG13S_618_rev1.12.15/tech/SG13_PASSIVES/spectre/SG13_res.lib
Reading file: 
        /CASNFSHOME/home/tsaikaterini/IHP/IHP_Generation_files/130ng/SG13S_618_rev1.12.15/tech/SG13_PASSIVES/spectre/SG13_cornerCAP.scs
Reading file: 
        /CASNFSHOME/home/tsaikaterini/IHP/IHP_Generation_files/130ng/SG13S_618_rev1.12.15/tech/SG13_PASSIVES/spectre/SG13_cap_mm.scs
Reading file: 
        /CASNFSHOME/home/tsaikaterini/IHP/IHP_Generation_files/130ng/SG13S_618_rev1.12.15/tech/SG13_PASSIVES/spectre/SG13_cap_stat.scs
Reading file: 
        /CASNFSHOME/home/tsaikaterini/IHP/IHP_Generation_files/130ng/SG13S_618_rev1.12.15/tech/SG13_PASSIVES/spectre/SG13_cap.lib
Reading file: 
        /CASNFSHOME/home/tsaikaterini/IHP/IHP_Generation_files/130ng/SG13S_618_rev1.12.15/tech/SG13_PASSIVES/spectre/Ind_unit_4PI
Reading file: 
        /CASNFSHOME/home/tsaikaterini/IHP/IHP_Generation_files/130ng/SG13S_618_rev1.12.15/tech/SG13_PASSIVES/spectre/Parameters_define_4PI
Reading file: 
        /CASNFSHOME/home/tsaikaterini/IHP/IHP_Generation_files/130ng/SG13S_618_rev1.12.15/tech/SG13_PASSIVES/spectre/sg13s_dschottky_nbl1_mod.lib
Reading file: 
        /CASNFSHOME/home/tsaikaterini/IHP/IHP_Generation_files/130ng/SG13S_618_rev1.12.15/tech/SG13_PASSIVES/spectre/SG13_diodes.lib
Reading file: 
        /CASNFSHOME/home/tsaikaterini/IHP/IHP_Generation_files/130ng/SG13S_618_rev1.12.15/tech/SG13_MOS/library/spectre/CheckMOSstat.scs
Reading file: 
        /CASNFSHOME/home/tsaikaterini/IHP/IHP_Generation_files/130ng/SG13S_618_rev1.12.15/tech/SG13_MOS/library/spectre/CheckMOSdyn.scs
Reading file: 
        /CASNFSHOME/home/tsaikaterini/IHP/IHP_Generation_files/130ng/SG13S_618_rev1.12.15/tech/SG13_ESD/spectre/SG13_esd.lib
Reading file: 
        /CASNFSHOME/home/tsaikaterini/IHP/IHP_Generation_files/130ng/SG13S_618_rev1.12.15/tech/SG13_PASSIVES/spectre/SG13_cornerTSV.scs
Reading file: 
        /CASNFSHOME/home/tsaikaterini/IHP/IHP_Generation_files/130ng/SG13S_618_rev1.12.15/tech/SG13_PASSIVES/spectre/SG13_paramsTSV.scs
Reading file: 
        /CASNFSHOME/home/tsaikaterini/IHP/IHP_Generation_files/130ng/SG13S_618_rev1.12.15/tech/SG13_PASSIVES/spectre/SG13_tsv.lib
Reading file: 
        /CASNFSHOME/home/tsaikaterini/IHP/IHP_Generation_files/130ng/ixc013ng_stdcell_rc.scs
Time for NDB Parsing: CPU = 590.731 ms, elapsed = 694.189 ms.
Time accumulated: CPU = 716.507 ms, elapsed = 694.193 ms.
Peak resident memory used = 113 Mbytes.


Warning from spectre in `NO2JIX0':`nor1', during hierarchy flattening.
    WARNING (SFE-103):
        "/CASNFSHOME/home/tsaikaterini/IHP/IHP_Generation_files/130ng/ixc013ng_stdcell_rc.scs"
        28325: Subcircuit parameter `nrd', defined for subcircuit
        `sg13_lv_pmos', has been ignored because it is invalid. Check the
        parameters that are defined for the instantiated subcircuit and rerun
        the simulation.
    WARNING (SFE-103):
        "/CASNFSHOME/home/tsaikaterini/IHP/IHP_Generation_files/130ng/ixc013ng_stdcell_rc.scs"
        28325: Subcircuit parameter `nrs', defined for subcircuit
        `sg13_lv_pmos', has been ignored because it is invalid. Check the
        parameters that are defined for the instantiated subcircuit and rerun
        the simulation.
    WARNING (SFE-103):
        "/CASNFSHOME/home/tsaikaterini/IHP/IHP_Generation_files/130ng/ixc013ng_stdcell_rc.scs"
        28328: Subcircuit parameter `nrd', defined for subcircuit
        `sg13_lv_pmos', has been ignored because it is invalid. Check the
        parameters that are defined for the instantiated subcircuit and rerun
        the simulation.
    WARNING (SFE-103):
        "/CASNFSHOME/home/tsaikaterini/IHP/IHP_Generation_files/130ng/ixc013ng_stdcell_rc.scs"
        28328: Subcircuit parameter `nrs', defined for subcircuit
        `sg13_lv_pmos', has been ignored because it is invalid. Check the
        parameters that are defined for the instantiated subcircuit and rerun
        the simulation.
    WARNING (SFE-103):
        "/CASNFSHOME/home/tsaikaterini/IHP/IHP_Generation_files/130ng/ixc013ng_stdcell_rc.scs"
        28330: Subcircuit parameter `nrd', defined for subcircuit
        `sg13_lv_nmos', has been ignored because it is invalid. Check the
        parameters that are defined for the instantiated subcircuit and rerun
        the simulation.
        Further occurrences of this warning will be suppressed.

Time for Elaboration: CPU = 33.881 ms, elapsed = 37.379 ms.
Time accumulated: CPU = 750.597 ms, elapsed = 733.22 ms.
Peak resident memory used = 121 Mbytes.


Notice from spectre in `NO2JIX0':`nor1', during hierarchy flattening.
    nor1.c5: Terminals are connected together (to node `VSS').
Notice from spectre in `NO2JIX0':`nor2', during hierarchy flattening.
    nor2.c5: Terminals are connected together (to node `VSS').
Notice from spectre in `NO2JIX0':`nor3', during hierarchy flattening.
    nor3.c5: Terminals are connected together (to node `VSS').
Notice from spectre in `NO2JIX0':`nor4', during hierarchy flattening.
    nor4.c5: Terminals are connected together (to node `VSS').
Notice from spectre in `NO2JIX0':`nor5', during hierarchy flattening.
    nor5.c5: Terminals are connected together (to node `VSS').
        Further occurrences of this notice will be suppressed (except in log
        file).

Time for EDB Visiting: CPU = 30.071 ms, elapsed = 35.023 ms.
Time accumulated: CPU = 780.874 ms, elapsed = 769.786 ms.
Peak resident memory used = 128 Mbytes.


Warning from spectre during initial setup.
    WARNING (SPECTRE-17237): Assert violations will be written to the sqldb
        file because the 'checklimitdest' option has not been specified.
    WARNING (SPECTRE-17607): Assert `check_sg13s_lv_nmosHV_vgs' is ignored
        because it contains an expression which is not supported by native
        evaluator. 
    WARNING (SPECTRE-17607): Assert `check_sg13s_lv_nmosHV_vgd' is ignored
        because it contains an expression which is not supported by native
        evaluator. 
    WARNING (SPECTRE-17607): Assert `check_sg13s_lv_nmosHV_vds' is ignored
        because it contains an expression which is not supported by native
        evaluator. 
    WARNING (SPECTRE-17607): Assert `check_sg13s_lv_nmosHV_vdb' is ignored
        because it contains an expression which is not supported by native
        evaluator. 
    WARNING (SPECTRE-17607): Assert `check_sg13s_lv_nmosHV_vgb' is ignored
        because it contains an expression which is not supported by native
        evaluator. 
        Further occurrences of this warning will be suppressed.
Notice from spectre during topology check.
    Only one connection to the following 11 nodes:
        X_in1_wire.Capacitance*M
        X_out_wire.Capacitance*M
        X_out2_wire.Capacitance*M
        X_out3_wire.Capacitance*M
        X_out4_wire.Capacitance*M
        Further occurrences of this notice will be suppressed (except in log
        file).
    No DC path from node `X_in1_wire.Capacitance*M' to ground, Gmin installed
        to provide path.
    No DC path from node `X_out_wire.Capacitance*M' to ground, Gmin installed
        to provide path.
    No DC path from node `X_out2_wire.Capacitance*M' to ground, Gmin installed
        to provide path.
    No DC path from node `X_out3_wire.Capacitance*M' to ground, Gmin installed
        to provide path.
    No DC path from node `X_out4_wire.Capacitance*M' to ground, Gmin installed
        to provide path.
        Further occurrences of this notice will be suppressed (except in log
        file).


Global user options:
               temp = 0

Scoped user options:

Circuit inventory:
              nodes 165
          capacitor 181   
          pspnqs103 40    
           resistor 131   
            vsource 3     

Analysis and control statement inventory:
         altergroup 146   
               tran 147   

Output statements:
             .probe 0     
           .measure 3     
               save 0     

Design checks inventory:
          paramtest 160   
             assert 40    


Notice from spectre.
    12 notices suppressed.
    82 warnings suppressed.

Time for parsing: CPU = 14.534 ms, elapsed = 548.429 ms.
Time accumulated: CPU = 795.631 ms, elapsed = 1.31997 s.
Peak resident memory used = 131 Mbytes.

~~~~~~~~~~~~~~~~~~~~~~
Pre-Simulation Summary
~~~~~~~~~~~~~~~~~~~~~~
~~~~~~~~~~~~~~~~~~~~~~

Notice from spectre during transient analysis `transient1'.
    No checklimit analysis defined for asserts. A default checklimit analysis
        'SpectreChecklimitAnal' has been created with all asserts enabled.


*****************************************************
Transient Analysis `transient1': time = (0 s -> 2 ns)
*****************************************************

Notice from spectre during IC analysis `timeSweep', during transient analysis
        `transient1'.
    GminDC = 1 pS is large enough to noticeably affect the DC solution.
        dV(nor8.net16) = 22.15 mV
        Use the `gmin_check' option to eliminate or expand this report.

DC simulation time: CPU = 4.339 ms, elapsed = 5.656 ms.

Notice from spectre during transient analysis `transient1'.
    No outputs were found. Loosening output filter criterion to `allpub'.


Opening the PSFXL file ./nor_ss.raw/transient1.tran.tran ...
Important parameter values:
    start = 0 s
    outputstart = 0 s
    stop = 2 ns
    step = 100 fs
    maxstep = 40 ps
    ic = all
    useprevic = no
    skipdc = no
    reltol = 1e-03
    abstol(V) = 1 uV
    abstol(I) = 1 pA
    temp = 0 C
    tnom = 27 C
    tempeffects = all
    errpreset = moderate
    method = traponly
    lteratio = 3.5
    relref = sigglobal
    cmin = 0 F
    gmin = 1 pS


Output and IC/nodeset summary:
                 probe  2       
                 save   3       (current)
                 save   165     (voltage)

......9......8......7.....

Notice from spectre at time = 755.319 ps during transient analysis
        `transient1'.
    Found trapezoidal ringing on node VGND:p.
Notice from spectre at time = 755.437 ps during transient analysis
        `transient1'.
    Found trapezoidal ringing on node VGND:p.

......9......8......7......6......5......4......3......2......1......0
Number of accepted tran steps =             210

Notice from spectre during transient analysis `transient1'.
    Trapezoidal ringing is detected during tran analysis.
        Please use method=trap for better results and performance.


Maximum value achieved for any signal of each quantity: 
V: V(nor7.net16) = 1.025 V
I: I(VGND:p) = 36.61 uA
If your circuit contains signals of the same quantity that are vastly different
        in size (such as high voltage circuitry combined with low voltage
        control circuitry), you should consider specifying global option
        `bin_relref=yes'.

~~~~~~~~~~~~~~~~~~~~~~~~~~~~~~~~~
Post-Transient Simulation Summary
~~~~~~~~~~~~~~~~~~~~~~~~~~~~~~~~~
   -   To further speed up simulation, consider
          add ++aps on command line
~~~~~~~~~~~~~~~~~~~~~~~~~~~~~~~~~


During simulation, the CPU load for active processors is :
         0 (5.2 %)       1 (37.3 %)      2 (1.3 %)       3 (100.0 %)
         4 (55.5 %)      5 (3.9 %)       6 (61.0 %)      7 (3.3 %)
         8 (5.2 %)       9 (23.5 %)     10 (1.3 %)      11 (2.6 %)
        Total: 300.2%
Initial condition solution time: CPU = 4.408 ms, elapsed = 6.04391 ms.
Intrinsic tran analysis time:    CPU = 164.475 ms, elapsed = 221.282 ms.
Opening measure  file: 
        /CASNFSHOME2/home/sstatthoudakis/Documents/spectre/Gates/NOR2/nor_validate/corners/corner_pin2/wire_load/nor_ss.measure
Opening mt file: 
        /CASNFSHOME2/home/sstatthoudakis/Documents/spectre/Gates/NOR2/nor_validate/corners/corner_pin2/wire_load/nor_ss.mt0
Total time required for tran analysis `transient1': CPU = 242.112 ms, elapsed =
        439.052 ms, util. = 55.1%.
Time accumulated: CPU = 1.04999 s, elapsed = 1.79852 s.
Peak resident memory used = 139 Mbytes.


*************************
Alter Group `altergroup1'
*************************
Time for altergroup1: CPU = 9.907 ms, elapsed = 10.195 ms.
Time accumulated: CPU = 1.06005 s, elapsed = 1.80993 s.
Peak resident memory used = 140 Mbytes.


*****************************************************
Transient Analysis `transient2': time = (0 s -> 2 ns)
*****************************************************

Notice from spectre during IC analysis `timeSweep_cloned_1', during transient
        analysis `transient2'.
    GminDC = 1 pS is large enough to noticeably affect the DC solution.
        dV(nor10.net16) = 7.63705 mV
        Use the `gmin_check' option to eliminate or expand this report.

DC simulation time: CPU = 3.981 ms, elapsed = 5.14603 ms.

Notice from spectre during transient analysis `transient2'.
    No outputs were found. Loosening output filter criterion to `allpub'.


Opening the PSFXL file ./nor_ss.raw/transient2.tran.tran ...
Important parameter values:
    start = 0 s
    outputstart = 0 s
    stop = 2 ns
    step = 100 fs
    maxstep = 40 ps
    ic = all
    useprevic = no
    skipdc = no
    reltol = 1e-03
    abstol(V) = 1 uV
    abstol(I) = 1 pA
    temp = 50 C
    tnom = 27 C
    tempeffects = all
    errpreset = moderate
    method = traponly
    lteratio = 3.5
    relref = sigglobal
    cmin = 0 F
    gmin = 1 pS


Output and IC/nodeset summary:
                 probe  2       
                 save   3       (current)
                 save   165     (voltage)

......9......8......7....

Notice from spectre at time = 737.892 ps during transient analysis
        `transient2'.
    Found trapezoidal ringing on node VVDD:p.
Notice from spectre at time = 738.281 ps during transient analysis
        `transient2'.
    Found trapezoidal ringing on node VVDD:p.

......9......8......7......6......5......4......3......2......1......0
Number of accepted tran steps =             210

Notice from spectre during transient analysis `transient2'.
    Trapezoidal ringing is detected during tran analysis.
        Please use method=trap for better results and performance.


Maximum value achieved for any signal of each quantity: 
V: V(nor9.net16) = 1.018 V
I: I(VGND:p) = 36.29 uA
If your circuit contains signals of the same quantity that are vastly different
        in size (such as high voltage circuitry combined with low voltage
        control circuitry), you should consider specifying global option
        `bin_relref=yes'.

~~~~~~~~~~~~~~~~~~~~~~~~~~~~~~~~~
Post-Transient Simulation Summary
~~~~~~~~~~~~~~~~~~~~~~~~~~~~~~~~~
   -   To further speed up simulation, consider
          add ++aps on command line
~~~~~~~~~~~~~~~~~~~~~~~~~~~~~~~~~


During simulation, the CPU load for active processors is :
         0 (4.0 %)       1 (39.3 %)      2 (4.0 %)       3 (100.0 %)
         4 (60.8 %)      5 (3.5 %)       6 (55.0 %)      7 (3.0 %)
         8 (4.0 %)       9 (17.9 %)     10 (1.5 %)      11 (2.0 %)
        Total: 294.9%
Initial condition solution time: CPU = 4.043 ms, elapsed = 5.51605 ms.
Intrinsic tran analysis time:    CPU = 156.833 ms, elapsed = 216.503 ms.
Opening mt file: 
        /CASNFSHOME2/home/sstatthoudakis/Documents/spectre/Gates/NOR2/nor_validate/corners/corner_pin2/wire_load/nor_ss.mt1
Total time required for tran analysis `transient2': CPU = 164.166 ms, elapsed =
        237.489 ms, util. = 69.1%.
Time accumulated: CPU = 1.22914 s, elapsed = 2.07897 s.
Peak resident memory used = 140 Mbytes.


*************************
Alter Group `altergroup2'
*************************
Time for altergroup2: CPU = 6.47 ms, elapsed = 6.77586 ms.
Time accumulated: CPU = 1.23573 s, elapsed = 2.08721 s.
Peak resident memory used = 140 Mbytes.


*****************************************************
Transient Analysis `transient3': time = (0 s -> 2 ns)
*****************************************************

Notice from spectre during IC analysis `timeSweep_cloned_2', during transient
        analysis `transient3'.
    GminDC = 1 pS is large enough to noticeably affect the DC solution.
        dV(nor6.net16) = 285.601 uV
        Use the `gmin_check' option to eliminate or expand this report.

DC simulation time: CPU = 3.537 ms, elapsed = 4.55499 ms.

Notice from spectre during transient analysis `transient3'.
    No outputs were found. Loosening output filter criterion to `allpub'.


Opening the PSFXL file ./nor_ss.raw/transient3.tran.tran ...
Important parameter values:
    start = 0 s
    outputstart = 0 s
    stop = 2 ns
    step = 100 fs
    maxstep = 40 ps
    ic = all
    useprevic = no
    skipdc = no
    reltol = 1e-03
    abstol(V) = 1 uV
    abstol(I) = 1 pA
    temp = 125 C
    tnom = 27 C
    tempeffects = all
    errpreset = moderate
    method = traponly
    lteratio = 3.5
    relref = sigglobal
    cmin = 0 F
    gmin = 1 pS


Output and IC/nodeset summary:
                 probe  2       
                 save   3       (current)
                 save   165     (voltage)

......9......8......7......6......5......4......3......2......1......0
Number of accepted tran steps =             211

Maximum value achieved for any signal of each quantity: 
V: V(nor8.net16) = 1.007 V
I: I(VGND:p) = 37.42 uA
If your circuit contains signals of the same quantity that are vastly different
        in size (such as high voltage circuitry combined with low voltage
        control circuitry), you should consider specifying global option
        `bin_relref=yes'.

~~~~~~~~~~~~~~~~~~~~~~~~~~~~~~~~~
Post-Transient Simulation Summary
~~~~~~~~~~~~~~~~~~~~~~~~~~~~~~~~~
   -   To further speed up simulation, consider
          add ++aps on command line
~~~~~~~~~~~~~~~~~~~~~~~~~~~~~~~~~


During simulation, the CPU load for active processors is :
         0 (3.5 %)       1 (34.8 %)      2 (3.9 %)       3 (100.0 %)
         4 (61.8 %)      5 (3.1 %)       6 (60.1 %)      7 (2.6 %)
         8 (4.4 %)       9 (15.9 %)     10 (1.3 %)      11 (1.8 %)
        Total: 293.4%
Initial condition solution time: CPU = 3.583 ms, elapsed = 4.83203 ms.
Intrinsic tran analysis time:    CPU = 155.94 ms, elapsed = 199.869 ms.
Opening mt file: 
        /CASNFSHOME2/home/sstatthoudakis/Documents/spectre/Gates/NOR2/nor_validate/corners/corner_pin2/wire_load/nor_ss.mt2
Total time required for tran analysis `transient3': CPU = 162.554 ms, elapsed =
        219.253 ms, util. = 74.1%.
Time accumulated: CPU = 1.40615 s, elapsed = 2.34352 s.
Peak resident memory used = 140 Mbytes.


*************************
Alter Group `altergroup3'
*************************
Time for altergroup3: CPU = 10.703 ms, elapsed = 11.091 ms.
Time accumulated: CPU = 1.417 s, elapsed = 2.35593 s.
Peak resident memory used = 140 Mbytes.


*****************************************************
Transient Analysis `transient4': time = (0 s -> 2 ns)
*****************************************************

Notice from spectre during IC analysis `timeSweep_cloned_3', during transient
        analysis `transient4'.
    GminDC = 1 pS is large enough to noticeably affect the DC solution.
        dV(nor2.net16) = 22.011 mV
        Use the `gmin_check' option to eliminate or expand this report.

DC simulation time: CPU = 3.602 ms, elapsed = 5.25093 ms.

Notice from spectre during transient analysis `transient4'.
    No outputs were found. Loosening output filter criterion to `allpub'.


Opening the PSFXL file ./nor_ss.raw/transient4.tran.tran ...
Important parameter values:
    start = 0 s
    outputstart = 0 s
    stop = 2 ns
    step = 100 fs
    maxstep = 40 ps
    ic = all
    useprevic = no
    skipdc = no
    reltol = 1e-03
    abstol(V) = 1 uV
    abstol(I) = 1 pA
    temp = 0 C
    tnom = 27 C
    tempeffects = all
    errpreset = moderate
    method = traponly
    lteratio = 3.5
    relref = sigglobal
    cmin = 0 F
    gmin = 1 pS


Output and IC/nodeset summary:
                 probe  2       
                 save   3       (current)
                 save   165     (voltage)

......9......8......7....

Notice from spectre at time = 734.352 ps during transient analysis
        `transient4'.
    Found trapezoidal ringing on node VGND:p.
Notice from spectre at time = 734.511 ps during transient analysis
        `transient4'.
    Found trapezoidal ringing on node VGND:p.

......9......8......7......6......5......4......3......2......1......0
Number of accepted tran steps =             215

Notice from spectre during transient analysis `transient4'.
    Trapezoidal ringing is detected during tran analysis.
        Please use method=trap for better results and performance.


Maximum value achieved for any signal of each quantity: 
V: V(nor7.net16) = 1.035 V
I: I(VGND:p) = 38.15 uA
If your circuit contains signals of the same quantity that are vastly different
        in size (such as high voltage circuitry combined with low voltage
        control circuitry), you should consider specifying global option
        `bin_relref=yes'.

~~~~~~~~~~~~~~~~~~~~~~~~~~~~~~~~~
Post-Transient Simulation Summary
~~~~~~~~~~~~~~~~~~~~~~~~~~~~~~~~~
   -   To further speed up simulation, consider
          add ++aps on command line
~~~~~~~~~~~~~~~~~~~~~~~~~~~~~~~~~


During simulation, the CPU load for active processors is :
         0 (3.1 %)       1 (30.6 %)      2 (3.5 %)       3 (100.0 %)
         4 (62.9 %)      5 (2.8 %)       6 (64.7 %)      7 (2.3 %)
         8 (4.3 %)       9 (14.0 %)     10 (1.2 %)      11 (1.6 %)
        Total: 291.0%
Initial condition solution time: CPU = 3.654 ms, elapsed = 5.71394 ms.
Intrinsic tran analysis time:    CPU = 182.32 ms, elapsed = 234.575 ms.
Opening mt file: 
        /CASNFSHOME2/home/sstatthoudakis/Documents/spectre/Gates/NOR2/nor_validate/corners/corner_pin2/wire_load/nor_ss.mt3
Total time required for tran analysis `transient4': CPU = 189.69 ms, elapsed =
        257.373 ms, util. = 73.7%.
Time accumulated: CPU = 1.61205 s, elapsed = 2.64701 s.
Peak resident memory used = 140 Mbytes.


*************************
Alter Group `altergroup4'
*************************
Time for altergroup4: CPU = 7.613 ms, elapsed = 8.09407 ms.
Time accumulated: CPU = 1.61978 s, elapsed = 2.65666 s.
Peak resident memory used = 140 Mbytes.


*****************************************************
Transient Analysis `transient5': time = (0 s -> 2 ns)
*****************************************************

Notice from spectre during IC analysis `timeSweep_cloned_4', during transient
        analysis `transient5'.
    GminDC = 1 pS is large enough to noticeably affect the DC solution.
        dV(nor10.net16) = 7.64386 mV
        Use the `gmin_check' option to eliminate or expand this report.

DC simulation time: CPU = 4.199 ms, elapsed = 5.64384 ms.

Notice from spectre during transient analysis `transient5'.
    No outputs were found. Loosening output filter criterion to `allpub'.


Opening the PSFXL file ./nor_ss.raw/transient5.tran.tran ...
Important parameter values:
    start = 0 s
    outputstart = 0 s
    stop = 2 ns
    step = 100 fs
    maxstep = 40 ps
    ic = all
    useprevic = no
    skipdc = no
    reltol = 1e-03
    abstol(V) = 1 uV
    abstol(I) = 1 pA
    temp = 50 C
    tnom = 27 C
    tempeffects = all
    errpreset = moderate
    method = traponly
    lteratio = 3.5
    relref = sigglobal
    cmin = 0 F
    gmin = 1 pS


Output and IC/nodeset summary:
                 probe  2       
                 save   3       (current)
                 save   165     (voltage)

......9......8......7......6......5......4.....

Notice from spectre at time = 1.37015 ns during transient analysis
        `transient5'.
    Found trapezoidal ringing on node nor1.1:B.

......9......8......7......6......5......4......3......2......1......0
Number of accepted tran steps =             214

Notice from spectre during transient analysis `transient5'.
    Trapezoidal ringing is detected during tran analysis.
        Please use method=trap for better results and performance.


Maximum value achieved for any signal of each quantity: 
V: V(nor9.net16) = 1.028 V
I: I(VGND:p) = 37.64 uA
If your circuit contains signals of the same quantity that are vastly different
        in size (such as high voltage circuitry combined with low voltage
        control circuitry), you should consider specifying global option
        `bin_relref=yes'.

~~~~~~~~~~~~~~~~~~~~~~~~~~~~~~~~~
Post-Transient Simulation Summary
~~~~~~~~~~~~~~~~~~~~~~~~~~~~~~~~~
   -   To further speed up simulation, consider
          add ++aps on command line
~~~~~~~~~~~~~~~~~~~~~~~~~~~~~~~~~


During simulation, the CPU load for active processors is :
         0 (2.8 %)       1 (27.5 %)      2 (3.5 %)       3 (100.0 %)
         4 (63.1 %)      5 (2.8 %)       6 (68.5 %)      7 (2.1 %)
         8 (4.2 %)       9 (12.5 %)     10 (1.4 %)      11 (1.4 %)
        Total: 289.8%
Initial condition solution time: CPU = 4.25 ms, elapsed = 6.02412 ms.
Intrinsic tran analysis time:    CPU = 161.157 ms, elapsed = 231.897 ms.
Opening mt file: 
        /CASNFSHOME2/home/sstatthoudakis/Documents/spectre/Gates/NOR2/nor_validate/corners/corner_pin2/wire_load/nor_ss.mt4
Total time required for tran analysis `transient5': CPU = 168.627 ms, elapsed =
        253.598 ms, util. = 66.5%.
Time accumulated: CPU = 1.79331 s, elapsed = 2.94195 s.
Peak resident memory used = 140 Mbytes.


*************************
Alter Group `altergroup5'
*************************
Time for altergroup5: CPU = 6.696 ms, elapsed = 6.96921 ms.
Time accumulated: CPU = 1.80011 s, elapsed = 2.94992 s.
Peak resident memory used = 140 Mbytes.


*****************************************************
Transient Analysis `transient6': time = (0 s -> 2 ns)
*****************************************************

Notice from spectre during IC analysis `timeSweep_cloned_5', during transient
        analysis `transient6'.
    GminDC = 1 pS is large enough to noticeably affect the DC solution.
        dV(nor4.net16) = 286.407 uV
        Use the `gmin_check' option to eliminate or expand this report.

DC simulation time: CPU = 4.089 ms, elapsed = 5.70393 ms.

Notice from spectre during transient analysis `transient6'.
    No outputs were found. Loosening output filter criterion to `allpub'.


Opening the PSFXL file ./nor_ss.raw/transient6.tran.tran ...
Important parameter values:
    start = 0 s
    outputstart = 0 s
    stop = 2 ns
    step = 100 fs
    maxstep = 40 ps
    ic = all
    useprevic = no
    skipdc = no
    reltol = 1e-03
    abstol(V) = 1 uV
    abstol(I) = 1 pA
    temp = 125 C
    tnom = 27 C
    tempeffects = all
    errpreset = moderate
    method = traponly
    lteratio = 3.5
    relref = sigglobal
    cmin = 0 F
    gmin = 1 pS


Output and IC/nodeset summary:
                 probe  2       
                 save   3       (current)
                 save   165     (voltage)

......9......8......7......6......5......4......3......2......1......0
Number of accepted tran steps =             210

Maximum value achieved for any signal of each quantity: 
V: V(nor9.net16) = 1.017 V
I: I(VGND:p) = 39.15 uA
If your circuit contains signals of the same quantity that are vastly different
        in size (such as high voltage circuitry combined with low voltage
        control circuitry), you should consider specifying global option
        `bin_relref=yes'.

~~~~~~~~~~~~~~~~~~~~~~~~~~~~~~~~~
Post-Transient Simulation Summary
~~~~~~~~~~~~~~~~~~~~~~~~~~~~~~~~~
   -   To further speed up simulation, consider
          add ++aps on command line
~~~~~~~~~~~~~~~~~~~~~~~~~~~~~~~~~


During simulation, the CPU load for active processors is :
         0 (2.9 %)       1 (25.2 %)      2 (3.2 %)       3 (100.0 %)
         4 (63.5 %)      5 (2.6 %)       6 (71.1 %)      7 (2.5 %)
         8 (4.2 %)       9 (12.1 %)     10 (1.3 %)      11 (1.3 %)
        Total: 289.9%
Initial condition solution time: CPU = 4.143 ms, elapsed = 6.04892 ms.
Intrinsic tran analysis time:    CPU = 149.255 ms, elapsed = 201.264 ms.
Opening mt file: 
        /CASNFSHOME2/home/sstatthoudakis/Documents/spectre/Gates/NOR2/nor_validate/corners/corner_pin2/wire_load/nor_ss.mt5
Total time required for tran analysis `transient6': CPU = 156.378 ms, elapsed =
        222.907 ms, util. = 70.2%.
Time accumulated: CPU = 1.96104 s, elapsed = 3.20483 s.
Peak resident memory used = 140 Mbytes.


*************************
Alter Group `altergroup6'
*************************
Time for altergroup6: CPU = 6.53 ms, elapsed = 7.00402 ms.
Time accumulated: CPU = 1.96768 s, elapsed = 3.21336 s.
Peak resident memory used = 140 Mbytes.


*****************************************************
Transient Analysis `transient7': time = (0 s -> 2 ns)
*****************************************************

Notice from spectre during IC analysis `timeSweep_cloned_6', during transient
        analysis `transient7'.
    GminDC = 1 pS is large enough to noticeably affect the DC solution.
        dV(nor4.net16) = 22.0483 mV
        Use the `gmin_check' option to eliminate or expand this report.

DC simulation time: CPU = 3.579 ms, elapsed = 4.82512 ms.

Notice from spectre during transient analysis `transient7'.
    No outputs were found. Loosening output filter criterion to `allpub'.


Opening the PSFXL file ./nor_ss.raw/transient7.tran.tran ...
Important parameter values:
    start = 0 s
    outputstart = 0 s
    stop = 2 ns
    step = 100 fs
    maxstep = 40 ps
    ic = all
    useprevic = no
    skipdc = no
    reltol = 1e-03
    abstol(V) = 1 uV
    abstol(I) = 1 pA
    temp = 0 C
    tnom = 27 C
    tempeffects = all
    errpreset = moderate
    method = traponly
    lteratio = 3.5
    relref = sigglobal
    cmin = 0 F
    gmin = 1 pS


Output and IC/nodeset summary:
                 probe  2       
                 save   3       (current)
                 save   165     (voltage)

......9......8......7......6......5......4......3......2......1......0
Number of accepted tran steps =             219

Maximum value achieved for any signal of each quantity: 
V: V(nor7.net16) = 1.045 V
I: I(VGND:p) = 39.64 uA
If your circuit contains signals of the same quantity that are vastly different
        in size (such as high voltage circuitry combined with low voltage
        control circuitry), you should consider specifying global option
        `bin_relref=yes'.

~~~~~~~~~~~~~~~~~~~~~~~~~~~~~~~~~
Post-Transient Simulation Summary
~~~~~~~~~~~~~~~~~~~~~~~~~~~~~~~~~
   -   To further speed up simulation, consider
          add ++aps on command line
~~~~~~~~~~~~~~~~~~~~~~~~~~~~~~~~~


During simulation, the CPU load for active processors is :
         0 (2.6 %)       1 (23.2 %)      2 (2.9 %)       3 (100.0 %)
         4 (64.0 %)      5 (2.7 %)       6 (73.4 %)      7 (2.3 %)
         8 (4.1 %)       9 (11.1 %)     10 (1.2 %)      11 (1.2 %)
        Total: 288.8%
Initial condition solution time: CPU = 3.624 ms, elapsed = 5.0931 ms.
Intrinsic tran analysis time:    CPU = 166.169 ms, elapsed = 214.108 ms.
Opening mt file: 
        /CASNFSHOME2/home/sstatthoudakis/Documents/spectre/Gates/NOR2/nor_validate/corners/corner_pin2/wire_load/nor_ss.mt6
Total time required for tran analysis `transient7': CPU = 172.996 ms, elapsed =
        234.084 ms, util. = 73.9%.
Time accumulated: CPU = 2.14633 s, elapsed = 3.48206 s.
Peak resident memory used = 140 Mbytes.


*************************
Alter Group `altergroup7'
*************************
Time for altergroup7: CPU = 7.538 ms, elapsed = 7.98297 ms.
Time accumulated: CPU = 2.15399 s, elapsed = 3.49137 s.
Peak resident memory used = 140 Mbytes.


*****************************************************
Transient Analysis `transient8': time = (0 s -> 2 ns)
*****************************************************

Notice from spectre during IC analysis `timeSweep_cloned_7', during transient
        analysis `transient8'.
    GminDC = 1 pS is large enough to noticeably affect the DC solution.
        dV(nor10.net16) = 7.65002 mV
        Use the `gmin_check' option to eliminate or expand this report.

DC simulation time: CPU = 4.314 ms, elapsed = 5.79286 ms.

Notice from spectre during transient analysis `transient8'.
    No outputs were found. Loosening output filter criterion to `allpub'.


Opening the PSFXL file ./nor_ss.raw/transient8.tran.tran ...
Important parameter values:
    start = 0 s
    outputstart = 0 s
    stop = 2 ns
    step = 100 fs
    maxstep = 40 ps
    ic = all
    useprevic = no
    skipdc = no
    reltol = 1e-03
    abstol(V) = 1 uV
    abstol(I) = 1 pA
    temp = 50 C
    tnom = 27 C
    tempeffects = all
    errpreset = moderate
    method = traponly
    lteratio = 3.5
    relref = sigglobal
    cmin = 0 F
    gmin = 1 pS


Output and IC/nodeset summary:
                 probe  2       
                 save   3       (current)
                 save   165     (voltage)

......9......8......7......6......5......4......3......2......1......0
Number of accepted tran steps =             215

Maximum value achieved for any signal of each quantity: 
V: V(nor9.net16) = 1.038 V
I: I(VGND:p) = 39.21 uA
If your circuit contains signals of the same quantity that are vastly different
        in size (such as high voltage circuitry combined with low voltage
        control circuitry), you should consider specifying global option
        `bin_relref=yes'.

~~~~~~~~~~~~~~~~~~~~~~~~~~~~~~~~~
Post-Transient Simulation Summary
~~~~~~~~~~~~~~~~~~~~~~~~~~~~~~~~~
   -   To further speed up simulation, consider
          add ++aps on command line
~~~~~~~~~~~~~~~~~~~~~~~~~~~~~~~~~


During simulation, the CPU load for active processors is :
         0 (3.0 %)       1 (22.6 %)      2 (7.3 %)       3 (100.0 %)
         4 (61.4 %)      5 (2.8 %)       6 (75.3 %)      7 (2.2 %)
         8 (3.8 %)       9 (10.6 %)     10 (1.1 %)      11 (1.1 %)
        Total: 291.2%
Initial condition solution time: CPU = 4.369 ms, elapsed = 6.17504 ms.
Intrinsic tran analysis time:    CPU = 161.055 ms, elapsed = 199.87 ms.
Opening mt file: 
        /CASNFSHOME2/home/sstatthoudakis/Documents/spectre/Gates/NOR2/nor_validate/corners/corner_pin2/wire_load/nor_ss.mt7
Total time required for tran analysis `transient8': CPU = 168.665 ms, elapsed =
        221.684 ms, util. = 76.1%.
Time accumulated: CPU = 2.32918 s, elapsed = 3.74751 s.
Peak resident memory used = 140 Mbytes.


*************************
Alter Group `altergroup8'
*************************
Time for altergroup8: CPU = 6.693 ms, elapsed = 7.06887 ms.
Time accumulated: CPU = 2.336 s, elapsed = 3.75592 s.
Peak resident memory used = 140 Mbytes.


*****************************************************
Transient Analysis `transient9': time = (0 s -> 2 ns)
*****************************************************

Notice from spectre during IC analysis `timeSweep_cloned_8', during transient
        analysis `transient9'.
    GminDC = 1 pS is large enough to noticeably affect the DC solution.
        dV(nor6.net16) = 287.167 uV
        Use the `gmin_check' option to eliminate or expand this report.

DC simulation time: CPU = 3.731 ms, elapsed = 5.07307 ms.

Notice from spectre during transient analysis `transient9'.
    No outputs were found. Loosening output filter criterion to `allpub'.


Opening the PSFXL file ./nor_ss.raw/transient9.tran.tran ...
Important parameter values:
    start = 0 s
    outputstart = 0 s
    stop = 2 ns
    step = 100 fs
    maxstep = 40 ps
    ic = all
    useprevic = no
    skipdc = no
    reltol = 1e-03
    abstol(V) = 1 uV
    abstol(I) = 1 pA
    temp = 125 C
    tnom = 27 C
    tempeffects = all
    errpreset = moderate
    method = traponly
    lteratio = 3.5
    relref = sigglobal
    cmin = 0 F
    gmin = 1 pS


Output and IC/nodeset summary:
                 probe  2       
                 save   3       (current)
                 save   165     (voltage)

......9......8......7......6......5......4......3......2......1......0
Number of accepted tran steps =             213

Maximum value achieved for any signal of each quantity: 
V: V(nor9.net16) = 1.027 V
I: I(VGND:p) = 40.94 uA
If your circuit contains signals of the same quantity that are vastly different
        in size (such as high voltage circuitry combined with low voltage
        control circuitry), you should consider specifying global option
        `bin_relref=yes'.

~~~~~~~~~~~~~~~~~~~~~~~~~~~~~~~~~
Post-Transient Simulation Summary
~~~~~~~~~~~~~~~~~~~~~~~~~~~~~~~~~
   -   To further speed up simulation, consider
          add ++aps on command line
~~~~~~~~~~~~~~~~~~~~~~~~~~~~~~~~~


During simulation, the CPU load for active processors is :
         0 (4.1 %)       1 (21.0 %)      2 (11.6 %)      3 (100.0 %)
         4 (57.2 %)      5 (2.6 %)       6 (77.0 %)      7 (2.0 %)
         8 (3.8 %)       9 (10.2 %)     10 (1.0 %)      11 (1.0 %)
        Total: 291.6%
Initial condition solution time: CPU = 3.781 ms, elapsed = 5.45812 ms.
Intrinsic tran analysis time:    CPU = 161.928 ms, elapsed = 209.558 ms.
Opening mt file: 
        /CASNFSHOME2/home/sstatthoudakis/Documents/spectre/Gates/NOR2/nor_validate/corners/corner_pin2/wire_load/nor_ss.mt8
Total time required for tran analysis `transient9': CPU = 168.71 ms, elapsed =
        230.579 ms, util. = 73.2%.
Time accumulated: CPU = 2.50987 s, elapsed = 4.01935 s.
Peak resident memory used = 140 Mbytes.


*************************
Alter Group `altergroup9'
*************************
Time for altergroup9: CPU = 12.219 ms, elapsed = 12.5532 ms.
Time accumulated: CPU = 2.52251 s, elapsed = 4.03378 s.
Peak resident memory used = 140 Mbytes.


******************************************************
Transient Analysis `transient10': time = (0 s -> 2 ns)
******************************************************

Notice from spectre during IC analysis `timeSweep_cloned_9', during transient
        analysis `transient10'.
    GminDC = 1 pS is large enough to noticeably affect the DC solution.
        dV(nor2.net16) = 22.0804 mV
        Use the `gmin_check' option to eliminate or expand this report.

DC simulation time: CPU = 3.668 ms, elapsed = 4.85921 ms.

Notice from spectre during transient analysis `transient10'.
    No outputs were found. Loosening output filter criterion to `allpub'.


Opening the PSFXL file ./nor_ss.raw/transient10.tran.tran ...
Important parameter values:
    start = 0 s
    outputstart = 0 s
    stop = 2 ns
    step = 100 fs
    maxstep = 40 ps
    ic = all
    useprevic = no
    skipdc = no
    reltol = 1e-03
    abstol(V) = 1 uV
    abstol(I) = 1 pA
    temp = 0 C
    tnom = 27 C
    tempeffects = all
    errpreset = moderate
    method = traponly
    lteratio = 3.5
    relref = sigglobal
    cmin = 0 F
    gmin = 1 pS


Output and IC/nodeset summary:
                 probe  2       
                 save   3       (current)
                 save   165     (voltage)

......9......8......7......6......5......4......3......2......1......0
Number of accepted tran steps =             218

Maximum value achieved for any signal of each quantity: 
V: V(nor9.net16) = 1.055 V
I: I(VGND:p) = 41.14 uA
If your circuit contains signals of the same quantity that are vastly different
        in size (such as high voltage circuitry combined with low voltage
        control circuitry), you should consider specifying global option
        `bin_relref=yes'.

~~~~~~~~~~~~~~~~~~~~~~~~~~~~~~~~~
Post-Transient Simulation Summary
~~~~~~~~~~~~~~~~~~~~~~~~~~~~~~~~~
   -   To further speed up simulation, consider
          add ++aps on command line
~~~~~~~~~~~~~~~~~~~~~~~~~~~~~~~~~


During simulation, the CPU load for active processors is :
         0 (4.0 %)       1 (19.8 %)      2 (15.6 %)      3 (100.0 %)
         4 (53.5 %)      5 (2.4 %)       6 (78.6 %)      7 (1.9 %)
         8 (3.6 %)       9 (9.9 %)      10 (1.2 %)      
        Total: 291.4%
Initial condition solution time: CPU = 3.714 ms, elapsed = 5.24902 ms.
Intrinsic tran analysis time:    CPU = 170.978 ms, elapsed = 221.179 ms.
Opening mt file: 
        /CASNFSHOME2/home/sstatthoudakis/Documents/spectre/Gates/NOR2/nor_validate/corners/corner_pin2/wire_load/nor_ss.mt9
Total time required for tran analysis `transient10': CPU = 178.217 ms, elapsed
        = 242.636 ms, util. = 73.5%.
Time accumulated: CPU = 2.70541 s, elapsed = 4.30864 s.
Peak resident memory used = 140 Mbytes.


**************************
Alter Group `altergroup10'
**************************
Time for altergroup10: CPU = 6.586 ms, elapsed = 6.99186 ms.
Time accumulated: CPU = 2.7121 s, elapsed = 4.31716 s.
Peak resident memory used = 140 Mbytes.


******************************************************
Transient Analysis `transient11': time = (0 s -> 2 ns)
******************************************************

Notice from spectre during IC analysis `timeSweep_cloned_10', during transient
        analysis `transient11'.
    GminDC = 1 pS is large enough to noticeably affect the DC solution.
        dV(nor10.net16) = 7.65558 mV
        Use the `gmin_check' option to eliminate or expand this report.

DC simulation time: CPU = 3.548 ms, elapsed = 4.94099 ms.

Notice from spectre during transient analysis `transient11'.
    No outputs were found. Loosening output filter criterion to `allpub'.


Opening the PSFXL file ./nor_ss.raw/transient11.tran.tran ...
Important parameter values:
    start = 0 s
    outputstart = 0 s
    stop = 2 ns
    step = 100 fs
    maxstep = 40 ps
    ic = all
    useprevic = no
    skipdc = no
    reltol = 1e-03
    abstol(V) = 1 uV
    abstol(I) = 1 pA
    temp = 50 C
    tnom = 27 C
    tempeffects = all
    errpreset = moderate
    method = traponly
    lteratio = 3.5
    relref = sigglobal
    cmin = 0 F
    gmin = 1 pS


Output and IC/nodeset summary:
                 probe  2       
                 save   3       (current)
                 save   165     (voltage)

......9......8......7......6......5......4......3......2......1......0
Number of accepted tran steps =             224

Maximum value achieved for any signal of each quantity: 
V: V(nor7.net16) = 1.048 V
I: I(VGND:p) = 41.14 uA
If your circuit contains signals of the same quantity that are vastly different
        in size (such as high voltage circuitry combined with low voltage
        control circuitry), you should consider specifying global option
        `bin_relref=yes'.

~~~~~~~~~~~~~~~~~~~~~~~~~~~~~~~~~
Post-Transient Simulation Summary
~~~~~~~~~~~~~~~~~~~~~~~~~~~~~~~~~
   -   To further speed up simulation, consider
          add ++aps on command line
~~~~~~~~~~~~~~~~~~~~~~~~~~~~~~~~~


During simulation, the CPU load for active processors is :
         0 (3.8 %)       1 (19.1 %)      2 (19.1 %)      3 (100.0 %)
         4 (50.4 %)      5 (2.5 %)       6 (79.9 %)      7 (2.0 %)
         8 (3.3 %)       9 (9.6 %)      10 (1.1 %)      
        Total: 291.6%
Initial condition solution time: CPU = 3.591 ms, elapsed = 5.21588 ms.
Intrinsic tran analysis time:    CPU = 166.147 ms, elapsed = 206.966 ms.
Opening mt file: 
        /CASNFSHOME2/home/sstatthoudakis/Documents/spectre/Gates/NOR2/nor_validate/corners/corner_pin2/wire_load/nor_ss.mt10
Total time required for tran analysis `transient11': CPU = 172.839 ms, elapsed
        = 226.284 ms, util. = 76.4%.
Time accumulated: CPU = 2.88971 s, elapsed = 4.57658 s.
Peak resident memory used = 140 Mbytes.


**************************
Alter Group `altergroup11'
**************************
Time for altergroup11: CPU = 6.773 ms, elapsed = 7.31611 ms.
Time accumulated: CPU = 2.89658 s, elapsed = 4.58547 s.
Peak resident memory used = 140 Mbytes.


******************************************************
Transient Analysis `transient12': time = (0 s -> 2 ns)
******************************************************

Notice from spectre during IC analysis `timeSweep_cloned_11', during transient
        analysis `transient12'.
    GminDC = 1 pS is large enough to noticeably affect the DC solution.
        dV(nor4.net16) = 287.885 uV
        Use the `gmin_check' option to eliminate or expand this report.

DC simulation time: CPU = 3.902 ms, elapsed = 5.25999 ms.

Notice from spectre during transient analysis `transient12'.
    No outputs were found. Loosening output filter criterion to `allpub'.


Opening the PSFXL file ./nor_ss.raw/transient12.tran.tran ...
Important parameter values:
    start = 0 s
    outputstart = 0 s
    stop = 2 ns
    step = 100 fs
    maxstep = 40 ps
    ic = all
    useprevic = no
    skipdc = no
    reltol = 1e-03
    abstol(V) = 1 uV
    abstol(I) = 1 pA
    temp = 125 C
    tnom = 27 C
    tempeffects = all
    errpreset = moderate
    method = traponly
    lteratio = 3.5
    relref = sigglobal
    cmin = 0 F
    gmin = 1 pS


Output and IC/nodeset summary:
                 probe  2       
                 save   3       (current)
                 save   165     (voltage)

......9......8......7......6......5......4......3......2......1......0
Number of accepted tran steps =             216

Maximum value achieved for any signal of each quantity: 
V: V(nor7.net16) = 1.038 V
I: I(VGND:p) = 42.8 uA
If your circuit contains signals of the same quantity that are vastly different
        in size (such as high voltage circuitry combined with low voltage
        control circuitry), you should consider specifying global option
        `bin_relref=yes'.

~~~~~~~~~~~~~~~~~~~~~~~~~~~~~~~~~
Post-Transient Simulation Summary
~~~~~~~~~~~~~~~~~~~~~~~~~~~~~~~~~
   -   To further speed up simulation, consider
          add ++aps on command line
~~~~~~~~~~~~~~~~~~~~~~~~~~~~~~~~~


During simulation, the CPU load for active processors is :
         0 (3.8 %)       1 (18.0 %)      2 (21.8 %)      3 (100.0 %)
         4 (47.6 %)      5 (2.3 %)       6 (81.0 %)      7 (2.1 %)
         8 (3.2 %)       9 (9.0 %)      10 (1.1 %)      
        Total: 290.7%
Initial condition solution time: CPU = 3.952 ms, elapsed = 5.61309 ms.
Intrinsic tran analysis time:    CPU = 159.623 ms, elapsed = 207.756 ms.
Opening mt file: 
        /CASNFSHOME2/home/sstatthoudakis/Documents/spectre/Gates/NOR2/nor_validate/corners/corner_pin2/wire_load/nor_ss.mt11
Total time required for tran analysis `transient12': CPU = 166.912 ms, elapsed
        = 229.692 ms, util. = 72.7%.
Time accumulated: CPU = 3.06845 s, elapsed = 4.85196 s.
Peak resident memory used = 140 Mbytes.


**************************
Alter Group `altergroup12'
**************************
Time for altergroup12: CPU = 8.471 ms, elapsed = 8.99196 ms.
Time accumulated: CPU = 3.07704 s, elapsed = 4.86237 s.
Peak resident memory used = 140 Mbytes.


******************************************************
Transient Analysis `transient13': time = (0 s -> 2 ns)
******************************************************

Notice from spectre during IC analysis `timeSweep_cloned_12', during transient
        analysis `transient13'.
    GminDC = 1 pS is large enough to noticeably affect the DC solution.
        dV(nor2.net16) = 22.0497 mV
        Use the `gmin_check' option to eliminate or expand this report.

DC simulation time: CPU = 3.232 ms, elapsed = 4.55809 ms.

Notice from spectre during transient analysis `transient13'.
    No outputs were found. Loosening output filter criterion to `allpub'.


Opening the PSFXL file ./nor_ss.raw/transient13.tran.tran ...
Important parameter values:
    start = 0 s
    outputstart = 0 s
    stop = 2 ns
    step = 100 fs
    maxstep = 40 ps
    ic = all
    useprevic = no
    skipdc = no
    reltol = 1e-03
    abstol(V) = 1 uV
    abstol(I) = 1 pA
    temp = 0 C
    tnom = 27 C
    tempeffects = all
    errpreset = moderate
    method = traponly
    lteratio = 3.5
    relref = sigglobal
    cmin = 0 F
    gmin = 1 pS


Output and IC/nodeset summary:
                 probe  2       
                 save   3       (current)
                 save   165     (voltage)

......9......8......7......6..

Notice from spectre at time = 885.176 ps during transient analysis
        `transient13'.
    Found trapezoidal ringing on node VVDD:p.
Notice from spectre at time = 885.404 ps during transient analysis
        `transient13'.
    Found trapezoidal ringing on node VVDD:p.

......9......8......7......6......5......4.....

Notice from spectre at time = 1.36946 ns during transient analysis
        `transient13'.
    Found trapezoidal ringing on node nor1.1:B.

......9......8......7......6......5......4......3......2......1......0
Number of accepted tran steps =             223

Notice from spectre during transient analysis `transient13'.
    Trapezoidal ringing is detected during tran analysis.
        Please use method=trap for better results and performance.


Maximum value achieved for any signal of each quantity: 
V: V(nor9.net16) = 1.065 V
I: I(VGND:p) = 43.1 uA
If your circuit contains signals of the same quantity that are vastly different
        in size (such as high voltage circuitry combined with low voltage
        control circuitry), you should consider specifying global option
        `bin_relref=yes'.

~~~~~~~~~~~~~~~~~~~~~~~~~~~~~~~~~
Post-Transient Simulation Summary
~~~~~~~~~~~~~~~~~~~~~~~~~~~~~~~~~
   -   To further speed up simulation, consider
          add ++aps on command line
~~~~~~~~~~~~~~~~~~~~~~~~~~~~~~~~~


During simulation, the CPU load for active processors is :
         0 (3.5 %)       1 (17.1 %)      2 (24.1 %)      3 (100.0 %)
         4 (45.0 %)      5 (3.2 %)       6 (82.2 %)      7 (2.0 %)
         8 (3.0 %)       9 (8.5 %)      
        Total: 290.3%
Initial condition solution time: CPU = 3.28 ms, elapsed = 5.01919 ms.
Intrinsic tran analysis time:    CPU = 164.399 ms, elapsed = 240.638 ms.
Opening mt file: 
        /CASNFSHOME2/home/sstatthoudakis/Documents/spectre/Gates/NOR2/nor_validate/corners/corner_pin2/wire_load/nor_ss.mt12
Total time required for tran analysis `transient13': CPU = 170.639 ms, elapsed
        = 261.424 ms, util. = 65.3%.
Time accumulated: CPU = 3.2529 s, elapsed = 5.16042 s.
Peak resident memory used = 140 Mbytes.


**************************
Alter Group `altergroup13'
**************************
Time for altergroup13: CPU = 7.641 ms, elapsed = 8.09884 ms.
Time accumulated: CPU = 3.26067 s, elapsed = 5.1696 s.
Peak resident memory used = 140 Mbytes.


******************************************************
Transient Analysis `transient14': time = (0 s -> 2 ns)
******************************************************

Notice from spectre during IC analysis `timeSweep_cloned_13', during transient
        analysis `transient14'.
    GminDC = 1 pS is large enough to noticeably affect the DC solution.
        dV(nor10.net16) = 7.66052 mV
        Use the `gmin_check' option to eliminate or expand this report.

DC simulation time: CPU = 4.332 ms, elapsed = 5.66316 ms.

Notice from spectre during transient analysis `transient14'.
    No outputs were found. Loosening output filter criterion to `allpub'.


Opening the PSFXL file ./nor_ss.raw/transient14.tran.tran ...
Important parameter values:
    start = 0 s
    outputstart = 0 s
    stop = 2 ns
    step = 100 fs
    maxstep = 40 ps
    ic = all
    useprevic = no
    skipdc = no
    reltol = 1e-03
    abstol(V) = 1 uV
    abstol(I) = 1 pA
    temp = 50 C
    tnom = 27 C
    tempeffects = all
    errpreset = moderate
    method = traponly
    lteratio = 3.5
    relref = sigglobal
    cmin = 0 F
    gmin = 1 pS


Output and IC/nodeset summary:
                 probe  2       
                 save   3       (current)
                 save   165     (voltage)

......9......8......7......6......5......4......3......2......1......0
Number of accepted tran steps =             226

Maximum value achieved for any signal of each quantity: 
V: V(nor7.net16) = 1.058 V
I: I(VGND:p) = 43.17 uA
If your circuit contains signals of the same quantity that are vastly different
        in size (such as high voltage circuitry combined with low voltage
        control circuitry), you should consider specifying global option
        `bin_relref=yes'.

~~~~~~~~~~~~~~~~~~~~~~~~~~~~~~~~~
Post-Transient Simulation Summary
~~~~~~~~~~~~~~~~~~~~~~~~~~~~~~~~~
   -   To further speed up simulation, consider
          add ++aps on command line
~~~~~~~~~~~~~~~~~~~~~~~~~~~~~~~~~


During simulation, the CPU load for active processors is :
         0 (3.3 %)       1 (19.7 %)      2 (26.5 %)      3 (100.0 %)
         4 (43.1 %)      5 (3.0 %)       6 (80.0 %)      7 (2.1 %)
         8 (2.8 %)       9 (8.0 %)      
        Total: 290.3%
Initial condition solution time: CPU = 4.385 ms, elapsed = 6.04296 ms.
Intrinsic tran analysis time:    CPU = 172.018 ms, elapsed = 222.551 ms.
Opening mt file: 
        /CASNFSHOME2/home/sstatthoudakis/Documents/spectre/Gates/NOR2/nor_validate/corners/corner_pin2/wire_load/nor_ss.mt13
Total time required for tran analysis `transient14': CPU = 179.793 ms, elapsed
        = 244.966 ms, util. = 73.4%.
Time accumulated: CPU = 3.44539 s, elapsed = 5.44953 s.
Peak resident memory used = 140 Mbytes.


**************************
Alter Group `altergroup14'
**************************
Time for altergroup14: CPU = 6.411 ms, elapsed = 6.76203 ms.
Time accumulated: CPU = 3.4519 s, elapsed = 5.45757 s.
Peak resident memory used = 140 Mbytes.


******************************************************
Transient Analysis `transient15': time = (0 s -> 2 ns)
******************************************************

Notice from spectre during IC analysis `timeSweep_cloned_14', during transient
        analysis `transient15'.
    GminDC = 1 pS is large enough to noticeably affect the DC solution.
        dV(nor4.net16) = 288.563 uV
        Use the `gmin_check' option to eliminate or expand this report.

DC simulation time: CPU = 3.678 ms, elapsed = 5.03802 ms.

Notice from spectre during transient analysis `transient15'.
    No outputs were found. Loosening output filter criterion to `allpub'.


Opening the PSFXL file ./nor_ss.raw/transient15.tran.tran ...
Important parameter values:
    start = 0 s
    outputstart = 0 s
    stop = 2 ns
    step = 100 fs
    maxstep = 40 ps
    ic = all
    useprevic = no
    skipdc = no
    reltol = 1e-03
    abstol(V) = 1 uV
    abstol(I) = 1 pA
    temp = 125 C
    tnom = 27 C
    tempeffects = all
    errpreset = moderate
    method = traponly
    lteratio = 3.5
    relref = sigglobal
    cmin = 0 F
    gmin = 1 pS


Output and IC/nodeset summary:
                 probe  2       
                 save   3       (current)
                 save   165     (voltage)

......9......8......7......6......5......4......3......2......1......0
Number of accepted tran steps =             215

Maximum value achieved for any signal of each quantity: 
V: V(nor9.net16) = 1.048 V
I: I(VGND:p) = 44.6 uA
If your circuit contains signals of the same quantity that are vastly different
        in size (such as high voltage circuitry combined with low voltage
        control circuitry), you should consider specifying global option
        `bin_relref=yes'.

~~~~~~~~~~~~~~~~~~~~~~~~~~~~~~~~~
Post-Transient Simulation Summary
~~~~~~~~~~~~~~~~~~~~~~~~~~~~~~~~~
   -   To further speed up simulation, consider
          add ++aps on command line
~~~~~~~~~~~~~~~~~~~~~~~~~~~~~~~~~


During simulation, the CPU load for active processors is :
         0 (3.2 %)       1 (21.0 %)      2 (28.3 %)      3 (100.0 %)
         4 (41.4 %)      5 (2.9 %)       6 (78.8 %)      7 (2.0 %)
         8 (2.9 %)       9 (7.7 %)      
        Total: 289.6%
Initial condition solution time: CPU = 3.721 ms, elapsed = 5.32389 ms.
Intrinsic tran analysis time:    CPU = 155.534 ms, elapsed = 194.897 ms.
Opening mt file: 
        /CASNFSHOME2/home/sstatthoudakis/Documents/spectre/Gates/NOR2/nor_validate/corners/corner_pin2/wire_load/nor_ss.mt14
Total time required for tran analysis `transient15': CPU = 162.274 ms, elapsed
        = 214.882 ms, util. = 75.5%.
Time accumulated: CPU = 3.61888 s, elapsed = 5.70478 s.
Peak resident memory used = 140 Mbytes.


**************************
Alter Group `altergroup15'
**************************
Time for altergroup15: CPU = 6.684 ms, elapsed = 6.9921 ms.
Time accumulated: CPU = 3.62567 s, elapsed = 5.71337 s.
Peak resident memory used = 140 Mbytes.


******************************************************
Transient Analysis `transient16': time = (0 s -> 2 ns)
******************************************************

Notice from spectre during IC analysis `timeSweep_cloned_15', during transient
        analysis `transient16'.
    GminDC = 1 pS is large enough to noticeably affect the DC solution.
        dV(nor4.net16) = 22.1746 mV
        Use the `gmin_check' option to eliminate or expand this report.

DC simulation time: CPU = 4.99 ms, elapsed = 6.35695 ms.

Notice from spectre during transient analysis `transient16'.
    No outputs were found. Loosening output filter criterion to `allpub'.


Opening the PSFXL file ./nor_ss.raw/transient16.tran.tran ...
Important parameter values:
    start = 0 s
    outputstart = 0 s
    stop = 2 ns
    step = 100 fs
    maxstep = 40 ps
    ic = all
    useprevic = no
    skipdc = no
    reltol = 1e-03
    abstol(V) = 1 uV
    abstol(I) = 1 pA
    temp = 0 C
    tnom = 27 C
    tempeffects = all
    errpreset = moderate
    method = traponly
    lteratio = 3.5
    relref = sigglobal
    cmin = 0 F
    gmin = 1 pS


Output and IC/nodeset summary:
                 probe  2       
                 save   3       (current)
                 save   165     (voltage)

......9......8......7......6......5......4......3......2......1......0
Number of accepted tran steps =             223

Maximum value achieved for any signal of each quantity: 
V: V(nor3.net16) = 1.074 V
I: I(VGND:p) = 45.25 uA
If your circuit contains signals of the same quantity that are vastly different
        in size (such as high voltage circuitry combined with low voltage
        control circuitry), you should consider specifying global option
        `bin_relref=yes'.

~~~~~~~~~~~~~~~~~~~~~~~~~~~~~~~~~
Post-Transient Simulation Summary
~~~~~~~~~~~~~~~~~~~~~~~~~~~~~~~~~
   -   To further speed up simulation, consider
          add ++aps on command line
~~~~~~~~~~~~~~~~~~~~~~~~~~~~~~~~~


During simulation, the CPU load for active processors is :
         0 (3.0 %)       1 (20.1 %)      2 (30.3 %)      3 (100.0 %)
         4 (39.5 %)      5 (2.8 %)       6 (79.8 %)      7 (2.0 %)
         8 (2.9 %)       9 (7.3 %)      10 (1.4 %)      
        Total: 289.7%
Initial condition solution time: CPU = 5.052 ms, elapsed = 6.75797 ms.
Intrinsic tran analysis time:    CPU = 173.855 ms, elapsed = 222.155 ms.
Opening mt file: 
        /CASNFSHOME2/home/sstatthoudakis/Documents/spectre/Gates/NOR2/nor_validate/corners/corner_pin2/wire_load/nor_ss.mt15
Total time required for tran analysis `transient16': CPU = 183.249 ms, elapsed
        = 246.29 ms, util. = 74.4%.
Time accumulated: CPU = 3.81372 s, elapsed = 5.993 s.
Peak resident memory used = 140 Mbytes.


**************************
Alter Group `altergroup16'
**************************
Time for altergroup16: CPU = 6.419 ms, elapsed = 6.70695 ms.
Time accumulated: CPU = 3.82024 s, elapsed = 6.0009 s.
Peak resident memory used = 140 Mbytes.


******************************************************
Transient Analysis `transient17': time = (0 s -> 2 ns)
******************************************************

Notice from spectre during IC analysis `timeSweep_cloned_16', during transient
        analysis `transient17'.
    GminDC = 1 pS is large enough to noticeably affect the DC solution.
        dV(nor10.net16) = 7.66488 mV
        Use the `gmin_check' option to eliminate or expand this report.

DC simulation time: CPU = 3.598 ms, elapsed = 5.07593 ms.

Notice from spectre during transient analysis `transient17'.
    No outputs were found. Loosening output filter criterion to `allpub'.


Opening the PSFXL file ./nor_ss.raw/transient17.tran.tran ...
Important parameter values:
    start = 0 s
    outputstart = 0 s
    stop = 2 ns
    step = 100 fs
    maxstep = 40 ps
    ic = all
    useprevic = no
    skipdc = no
    reltol = 1e-03
    abstol(V) = 1 uV
    abstol(I) = 1 pA
    temp = 50 C
    tnom = 27 C
    tempeffects = all
    errpreset = moderate
    method = traponly
    lteratio = 3.5
    relref = sigglobal
    cmin = 0 F
    gmin = 1 pS


Output and IC/nodeset summary:
                 probe  2       
                 save   3       (current)
                 save   165     (voltage)

......9......8......7......6......5......4......3......2......1......0
Number of accepted tran steps =             223

Maximum value achieved for any signal of each quantity: 
V: V(nor4.net16) = 1.067 V
I: I(VGND:p) = 45.34 uA
If your circuit contains signals of the same quantity that are vastly different
        in size (such as high voltage circuitry combined with low voltage
        control circuitry), you should consider specifying global option
        `bin_relref=yes'.

~~~~~~~~~~~~~~~~~~~~~~~~~~~~~~~~~
Post-Transient Simulation Summary
~~~~~~~~~~~~~~~~~~~~~~~~~~~~~~~~~
   -   To further speed up simulation, consider
          add ++aps on command line
~~~~~~~~~~~~~~~~~~~~~~~~~~~~~~~~~


During simulation, the CPU load for active processors is :
         0 (2.9 %)       1 (19.2 %)      2 (32.0 %)      3 (100.0 %)
         4 (37.8 %)      5 (2.6 %)       6 (80.7 %)      7 (1.9 %)
         8 (2.9 %)       9 (7.0 %)      10 (1.5 %)      
        Total: 289.2%
Initial condition solution time: CPU = 3.647 ms, elapsed = 5.39613 ms.
Intrinsic tran analysis time:    CPU = 167.795 ms, elapsed = 215.597 ms.
Opening mt file: 
        /CASNFSHOME2/home/sstatthoudakis/Documents/spectre/Gates/NOR2/nor_validate/corners/corner_pin2/wire_load/nor_ss.mt16
Total time required for tran analysis `transient17': CPU = 174.289 ms, elapsed
        = 237.374 ms, util. = 73.4%.
Time accumulated: CPU = 3.99925 s, elapsed = 6.27326 s.
Peak resident memory used = 140 Mbytes.


**************************
Alter Group `altergroup17'
**************************
Time for altergroup17: CPU = 6.736 ms, elapsed = 7.04288 ms.
Time accumulated: CPU = 4.00609 s, elapsed = 6.28176 s.
Peak resident memory used = 140 Mbytes.


******************************************************
Transient Analysis `transient18': time = (0 s -> 2 ns)
******************************************************

Notice from spectre during IC analysis `timeSweep_cloned_17', during transient
        analysis `transient18'.
    GminDC = 1 pS is large enough to noticeably affect the DC solution.
        dV(nor6.net16) = 289.205 uV
        Use the `gmin_check' option to eliminate or expand this report.

DC simulation time: CPU = 4.07 ms, elapsed = 5.22089 ms.

Notice from spectre during transient analysis `transient18'.
    No outputs were found. Loosening output filter criterion to `allpub'.


Opening the PSFXL file ./nor_ss.raw/transient18.tran.tran ...
Important parameter values:
    start = 0 s
    outputstart = 0 s
    stop = 2 ns
    step = 100 fs
    maxstep = 40 ps
    ic = all
    useprevic = no
    skipdc = no
    reltol = 1e-03
    abstol(V) = 1 uV
    abstol(I) = 1 pA
    temp = 125 C
    tnom = 27 C
    tempeffects = all
    errpreset = moderate
    method = traponly
    lteratio = 3.5
    relref = sigglobal
    cmin = 0 F
    gmin = 1 pS


Output and IC/nodeset summary:
                 probe  2       
                 save   3       (current)
                 save   165     (voltage)

......9......8......7......6......5......4......3......2......1......0
Number of accepted tran steps =             218

Maximum value achieved for any signal of each quantity: 
V: V(nor9.net16) = 1.058 V
I: I(VGND:p) = 46.57 uA
If your circuit contains signals of the same quantity that are vastly different
        in size (such as high voltage circuitry combined with low voltage
        control circuitry), you should consider specifying global option
        `bin_relref=yes'.

~~~~~~~~~~~~~~~~~~~~~~~~~~~~~~~~~
Post-Transient Simulation Summary
~~~~~~~~~~~~~~~~~~~~~~~~~~~~~~~~~
   -   To further speed up simulation, consider
          add ++aps on command line
~~~~~~~~~~~~~~~~~~~~~~~~~~~~~~~~~


During simulation, the CPU load for active processors is :
         0 (3.1 %)       1 (18.3 %)      2 (33.5 %)      3 (100.0 %)
         4 (36.3 %)      5 (2.7 %)       6 (81.6 %)      7 (3.1 %)
         8 (2.8 %)       9 (6.9 %)      10 (1.7 %)      
        Total: 290.7%
Initial condition solution time: CPU = 4.115 ms, elapsed = 5.49603 ms.
Intrinsic tran analysis time:    CPU = 176.79 ms, elapsed = 243.753 ms.
Opening mt file: 
        /CASNFSHOME2/home/sstatthoudakis/Documents/spectre/Gates/NOR2/nor_validate/corners/corner_pin2/wire_load/nor_ss.mt17
Total time required for tran analysis `transient18': CPU = 185.699 ms, elapsed
        = 267.336 ms, util. = 69.5%.
Time accumulated: CPU = 4.19651 s, elapsed = 6.58765 s.
Peak resident memory used = 140 Mbytes.


**************************
Alter Group `altergroup18'
**************************
Time for altergroup18: CPU = 6.463 ms, elapsed = 6.95586 ms.
Time accumulated: CPU = 4.20309 s, elapsed = 6.59616 s.
Peak resident memory used = 140 Mbytes.


******************************************************
Transient Analysis `transient19': time = (0 s -> 2 ns)
******************************************************

Notice from spectre during IC analysis `timeSweep_cloned_18', during transient
        analysis `transient19'.
    GminDC = 1 pS is large enough to noticeably affect the DC solution.
        dV(nor6.net16) = 22.1251 mV
        Use the `gmin_check' option to eliminate or expand this report.

DC simulation time: CPU = 4.789 ms, elapsed = 6.63805 ms.

Notice from spectre during transient analysis `transient19'.
    No outputs were found. Loosening output filter criterion to `allpub'.


Opening the PSFXL file ./nor_ss.raw/transient19.tran.tran ...
Important parameter values:
    start = 0 s
    outputstart = 0 s
    stop = 2 ns
    step = 100 fs
    maxstep = 40 ps
    ic = all
    useprevic = no
    skipdc = no
    reltol = 1e-03
    abstol(V) = 1 uV
    abstol(I) = 1 pA
    temp = 0 C
    tnom = 27 C
    tempeffects = all
    errpreset = moderate
    method = traponly
    lteratio = 3.5
    relref = sigglobal
    cmin = 0 F
    gmin = 1 pS


Output and IC/nodeset summary:
                 probe  2       
                 save   3       (current)
                 save   165     (voltage)

......9......8......7......6......5......4......3......2......1......0
Number of accepted tran steps =             230

Maximum value achieved for any signal of each quantity: 
V: V(nor7.net16) = 1.085 V
I: I(VGND:p) = 47.64 uA
If your circuit contains signals of the same quantity that are vastly different
        in size (such as high voltage circuitry combined with low voltage
        control circuitry), you should consider specifying global option
        `bin_relref=yes'.

~~~~~~~~~~~~~~~~~~~~~~~~~~~~~~~~~
Post-Transient Simulation Summary
~~~~~~~~~~~~~~~~~~~~~~~~~~~~~~~~~
   -   To further speed up simulation, consider
          add ++aps on command line
~~~~~~~~~~~~~~~~~~~~~~~~~~~~~~~~~


During simulation, the CPU load for active processors is :
         0 (3.4 %)       1 (17.4 %)      2 (35.1 %)      3 (100.0 %)
         4 (35.3 %)      5 (3.1 %)       6 (82.5 %)      7 (3.5 %)
         8 (2.8 %)       9 (6.6 %)      10 (1.8 %)      
        Total: 292.4%
Initial condition solution time: CPU = 4.834 ms, elapsed = 7.03096 ms.
Intrinsic tran analysis time:    CPU = 182.39 ms, elapsed = 238.165 ms.
Opening mt file: 
        /CASNFSHOME2/home/sstatthoudakis/Documents/spectre/Gates/NOR2/nor_validate/corners/corner_pin2/wire_load/nor_ss.mt18
Total time required for tran analysis `transient19': CPU = 190.183 ms, elapsed
        = 260.353 ms, util. = 73%.
Time accumulated: CPU = 4.3983 s, elapsed = 6.89654 s.
Peak resident memory used = 140 Mbytes.


**************************
Alter Group `altergroup19'
**************************
Time for altergroup19: CPU = 6.744 ms, elapsed = 7.13611 ms.
Time accumulated: CPU = 4.40515 s, elapsed = 6.90516 s.
Peak resident memory used = 140 Mbytes.


******************************************************
Transient Analysis `transient20': time = (0 s -> 2 ns)
******************************************************

Notice from spectre during IC analysis `timeSweep_cloned_19', during transient
        analysis `transient20'.
    GminDC = 1 pS is large enough to noticeably affect the DC solution.
        dV(nor10.net16) = 7.66867 mV
        Use the `gmin_check' option to eliminate or expand this report.

DC simulation time: CPU = 3.861 ms, elapsed = 5.68509 ms.

Notice from spectre during transient analysis `transient20'.
    No outputs were found. Loosening output filter criterion to `allpub'.


Opening the PSFXL file ./nor_ss.raw/transient20.tran.tran ...
Important parameter values:
    start = 0 s
    outputstart = 0 s
    stop = 2 ns
    step = 100 fs
    maxstep = 40 ps
    ic = all
    useprevic = no
    skipdc = no
    reltol = 1e-03
    abstol(V) = 1 uV
    abstol(I) = 1 pA
    temp = 50 C
    tnom = 27 C
    tempeffects = all
    errpreset = moderate
    method = traponly
    lteratio = 3.5
    relref = sigglobal
    cmin = 0 F
    gmin = 1 pS


Output and IC/nodeset summary:
                 probe  2       
                 save   3       (current)
                 save   165     (voltage)

......9......8......7......6......5......4......3......2......1......0
Number of accepted tran steps =             222

Maximum value achieved for any signal of each quantity: 
V: V(nor8.net16) = 1.077 V
I: I(VGND:p) = 47.6 uA
If your circuit contains signals of the same quantity that are vastly different
        in size (such as high voltage circuitry combined with low voltage
        control circuitry), you should consider specifying global option
        `bin_relref=yes'.

~~~~~~~~~~~~~~~~~~~~~~~~~~~~~~~~~
Post-Transient Simulation Summary
~~~~~~~~~~~~~~~~~~~~~~~~~~~~~~~~~
   -   To further speed up simulation, consider
          add ++aps on command line
~~~~~~~~~~~~~~~~~~~~~~~~~~~~~~~~~


During simulation, the CPU load for active processors is :
         0 (3.5 %)       1 (16.7 %)      2 (34.2 %)      3 (100.0 %)
         4 (34.0 %)      5 (5.3 %)       6 (83.2 %)      7 (3.5 %)
         8 (2.8 %)       9 (6.3 %)      10 (1.8 %)      11 (1.1 %)
        Total: 292.6%
Initial condition solution time: CPU = 3.909 ms, elapsed = 6.11901 ms.
Intrinsic tran analysis time:    CPU = 165.736 ms, elapsed = 229.574 ms.
Opening mt file: 
        /CASNFSHOME2/home/sstatthoudakis/Documents/spectre/Gates/NOR2/nor_validate/corners/corner_pin2/wire_load/nor_ss.mt19
Total time required for tran analysis `transient20': CPU = 172.669 ms, elapsed
        = 252.579 ms, util. = 68.4%.
Time accumulated: CPU = 4.58252 s, elapsed = 7.2042 s.
Peak resident memory used = 140 Mbytes.


**************************
Alter Group `altergroup20'
**************************
Time for altergroup20: CPU = 7.282 ms, elapsed = 7.6139 ms.
Time accumulated: CPU = 4.58992 s, elapsed = 7.21299 s.
Peak resident memory used = 140 Mbytes.


******************************************************
Transient Analysis `transient21': time = (0 s -> 2 ns)
******************************************************

Notice from spectre during IC analysis `timeSweep_cloned_20', during transient
        analysis `transient21'.
    GminDC = 1 pS is large enough to noticeably affect the DC solution.
        dV(nor4.net16) = 289.812 uV
        Use the `gmin_check' option to eliminate or expand this report.

DC simulation time: CPU = 3.782 ms, elapsed = 5.71394 ms.

Notice from spectre during transient analysis `transient21'.
    No outputs were found. Loosening output filter criterion to `allpub'.


Opening the PSFXL file ./nor_ss.raw/transient21.tran.tran ...
Important parameter values:
    start = 0 s
    outputstart = 0 s
    stop = 2 ns
    step = 100 fs
    maxstep = 40 ps
    ic = all
    useprevic = no
    skipdc = no
    reltol = 1e-03
    abstol(V) = 1 uV
    abstol(I) = 1 pA
    temp = 125 C
    tnom = 27 C
    tempeffects = all
    errpreset = moderate
    method = traponly
    lteratio = 3.5
    relref = sigglobal
    cmin = 0 F
    gmin = 1 pS


Output and IC/nodeset summary:
                 probe  2       
                 save   3       (current)
                 save   165     (voltage)

......9......8......7......6......5.....

Notice from spectre at time = 1.155 ns during transient analysis
        `transient21'.
    Found trapezoidal ringing on node VVDD:p.

......9......8......7......6......5......4......3......2......1......0
Number of accepted tran steps =             219

Notice from spectre during transient analysis `transient21'.
    Trapezoidal ringing is detected during tran analysis.
        Please use method=trap for better results and performance.


Maximum value achieved for any signal of each quantity: 
V: V(nor7.net16) = 1.068 V
I: I(VGND:p) = 48.55 uA
If your circuit contains signals of the same quantity that are vastly different
        in size (such as high voltage circuitry combined with low voltage
        control circuitry), you should consider specifying global option
        `bin_relref=yes'.

~~~~~~~~~~~~~~~~~~~~~~~~~~~~~~~~~
Post-Transient Simulation Summary
~~~~~~~~~~~~~~~~~~~~~~~~~~~~~~~~~
   -   To further speed up simulation, consider
          add ++aps on command line
~~~~~~~~~~~~~~~~~~~~~~~~~~~~~~~~~


During simulation, the CPU load for active processors is :
         0 (3.5 %)       1 (16.0 %)      2 (32.7 %)      3 (100.0 %)
         4 (32.5 %)      5 (7.5 %)       6 (83.9 %)      7 (3.4 %)
         8 (2.8 %)       9 (6.2 %)      10 (1.9 %)      11 (1.1 %)
        Total: 291.5%
Initial condition solution time: CPU = 3.831 ms, elapsed = 6.22296 ms.
Intrinsic tran analysis time:    CPU = 157.462 ms, elapsed = 245.055 ms.
Opening mt file: 
        /CASNFSHOME2/home/sstatthoudakis/Documents/spectre/Gates/NOR2/nor_validate/corners/corner_pin2/wire_load/nor_ss.mt20
Total time required for tran analysis `transient21': CPU = 164.308 ms, elapsed
        = 267.444 ms, util. = 61.4%.
Time accumulated: CPU = 4.759 s, elapsed = 7.51976 s.
Peak resident memory used = 140 Mbytes.


**************************
Alter Group `altergroup21'
**************************
Time for altergroup21: CPU = 6.453 ms, elapsed = 7.00092 ms.
Time accumulated: CPU = 4.76557 s, elapsed = 7.52834 s.
Peak resident memory used = 140 Mbytes.


******************************************************
Transient Analysis `transient22': time = (0 s -> 2 ns)
******************************************************

Notice from spectre during IC analysis `timeSweep_cloned_21', during transient
        analysis `transient22'.
    GminDC = 1 pS is large enough to noticeably affect the DC solution.
        dV(nor8.net16) = 22.2049 mV
        Use the `gmin_check' option to eliminate or expand this report.

DC simulation time: CPU = 5.174 ms, elapsed = 6.86002 ms.

Notice from spectre during transient analysis `transient22'.
    No outputs were found. Loosening output filter criterion to `allpub'.


Opening the PSFXL file ./nor_ss.raw/transient22.tran.tran ...
Important parameter values:
    start = 0 s
    outputstart = 0 s
    stop = 2 ns
    step = 100 fs
    maxstep = 40 ps
[...]

Notice from spectre at time = 944.513 ps during transient analysis
        `transient143'.
    Found trapezoidal ringing on node nor10.3:A.

......9......8......7......6.....

Notice from spectre at time = 984.513 ps during transient analysis
        `transient143'.
    Found trapezoidal ringing on node nor10.3:A.

......9......8......7......6......

Notice from spectre at time = 1.02451 ns during transient analysis
        `transient143'.
    Found trapezoidal ringing on node nor10.3:A.

......9......8......7......6......5.

Notice from spectre at time = 1.06451 ns during transient analysis
        `transient143'.
    Found trapezoidal ringing on node nor10.3:A.
        Further occurrences of this notice will be suppressed (except in log
        file).

......9......8......7......6......5......4......3......2......1......0
Number of accepted tran steps =             261

Notice from spectre during transient analysis `transient143'.
    Trapezoidal ringing is detected during tran analysis.
        Please use method=trap for better results and performance.


Maximum value achieved for any signal of each quantity: 
V: V(nor10.net16) = 1.492 V
I: I(VGND:p) = 116.1 uA
If your circuit contains signals of the same quantity that are vastly different
        in size (such as high voltage circuitry combined with low voltage
        control circuitry), you should consider specifying global option
        `bin_relref=yes'.

~~~~~~~~~~~~~~~~~~~~~~~~~~~~~~~~~
Post-Transient Simulation Summary
~~~~~~~~~~~~~~~~~~~~~~~~~~~~~~~~~
   -   To further speed up simulation, consider
          add ++aps on command line
~~~~~~~~~~~~~~~~~~~~~~~~~~~~~~~~~


During simulation, the CPU load for active processors is :
         0 (2.2 %)       1 (13.2 %)      2 (79.9 %)      3 (40.5 %)
         4 (8.9 %)       5 (20.0 %)      6 (14.1 %)      7 (4.6 %)
         8 (3.1 %)       9 (2.2 %)      10 (1.8 %)      11 (86.6 %)
        Total: 277.2%
Initial condition solution time: CPU = 4.35 ms, elapsed = 5.85604 ms.
Intrinsic tran analysis time:    CPU = 232.801 ms, elapsed = 337.198 ms.
Opening mt file: 
        /CASNFSHOME2/home/sstatthoudakis/Documents/spectre/Gates/NOR2/nor_validate/corners/corner_pin2/wire_load/nor_ss.mt142
Total time required for tran analysis `transient143': CPU = 240.867 ms, elapsed
        = 359.006 ms, util. = 67.1%.
Time accumulated: CPU = 30.6792 s, elapsed = 59.8932 s.
Peak resident memory used = 144 Mbytes.


Notice from spectre.
    4 notices suppressed.


***************************
Alter Group `altergroup143'
***************************
Time for altergroup143: CPU = 15.582 ms, elapsed = 16.5339 ms.
Time accumulated: CPU = 30.6951 s, elapsed = 59.911 s.
Peak resident memory used = 144 Mbytes.


*******************************************************
Transient Analysis `transient144': time = (0 s -> 2 ns)
*******************************************************

Notice from spectre during IC analysis `timeSweep_cloned_143', during transient
        analysis `transient144'.
    GminDC = 1 pS is large enough to noticeably affect the DC solution.
        dV(nor4.net16) = 298.094 uV
        Use the `gmin_check' option to eliminate or expand this report.

DC simulation time: CPU = 4.075 ms, elapsed = 5.42307 ms.

Notice from spectre during transient analysis `transient144'.
    No outputs were found. Loosening output filter criterion to `allpub'.


Opening the PSFXL file ./nor_ss.raw/transient144.tran.tran ...
Important parameter values:
    start = 0 s
    outputstart = 0 s
    stop = 2 ns
    step = 100 fs
    maxstep = 40 ps
    ic = all
    useprevic = no
    skipdc = no
    reltol = 1e-03
    abstol(V) = 1 uV
    abstol(I) = 1 pA
    temp = 125 C
    tnom = 27 C
    tempeffects = all
    errpreset = moderate
    method = traponly
    lteratio = 3.5
    relref = sigglobal
    cmin = 0 F
    gmin = 1 pS


Output and IC/nodeset summary:
                 probe  2       
                 save   3       (current)
                 save   165     (voltage)

......9......

Notice from spectre at time = 382.888 ps during transient analysis
        `transient144'.
    Found trapezoidal ringing on node nor6.3:A.

......9......8......7......6...

Notice from spectre at time = 913.825 ps during transient analysis
        `transient144'.
    Found trapezoidal ringing on node VVDD:p.

......9......8......7......6....

Notice from spectre at time = 953.825 ps during transient analysis
        `transient144'.
    Found trapezoidal ringing on node VVDD:p.

......9......8......7......6.....

Notice from spectre at time = 993.825 ps during transient analysis
        `transient144'.
    Found trapezoidal ringing on node VVDD:p.

......9......8......7......6......5

Notice from spectre at time = 1.03382 ns during transient analysis
        `transient144'.
    Found trapezoidal ringing on node VVDD:p.
        Further occurrences of this notice will be suppressed (except in log
        file).

......9......8......7......6......5......4......3......2......1......0
Number of accepted tran steps =             249

Notice from spectre during transient analysis `transient144'.
    Trapezoidal ringing is detected during tran analysis.
        Please use method=trap for better results and performance.


Maximum value achieved for any signal of each quantity: 
V: V(nor10.2:Q) = 1.488 V
I: I(VGND:p) = 109.4 uA
If your circuit contains signals of the same quantity that are vastly different
        in size (such as high voltage circuitry combined with low voltage
        control circuitry), you should consider specifying global option
        `bin_relref=yes'.

~~~~~~~~~~~~~~~~~~~~~~~~~~~~~~~~~
Post-Transient Simulation Summary
~~~~~~~~~~~~~~~~~~~~~~~~~~~~~~~~~
   -   To further speed up simulation, consider
          add ++aps on command line
~~~~~~~~~~~~~~~~~~~~~~~~~~~~~~~~~


During simulation, the CPU load for active processors is :
         0 (2.1 %)       1 (13.2 %)      2 (80.0 %)      3 (40.2 %)
         4 (8.9 %)       5 (19.8 %)      6 (14.1 %)      7 (5.0 %)
         8 (3.2 %)       9 (2.2 %)      10 (1.8 %)      11 (86.7 %)
        Total: 277.2%
Initial condition solution time: CPU = 4.135 ms, elapsed = 5.78904 ms.
Intrinsic tran analysis time:    CPU = 222.903 ms, elapsed = 334.884 ms.
Opening mt file: 
        /CASNFSHOME2/home/sstatthoudakis/Documents/spectre/Gates/NOR2/nor_validate/corners/corner_pin2/wire_load/nor_ss.mt143
Total time required for tran analysis `transient144': CPU = 231.779 ms, elapsed
        = 358.626 ms, util. = 64.6%.
Time accumulated: CPU = 30.9343 s, elapsed = 60.3092 s (1m  0.3s).
Peak resident memory used = 144 Mbytes.


Notice from spectre.
    5 notices suppressed.


***************************
Alter Group `altergroup144'
***************************
Time for altergroup144: CPU = 9.821 ms, elapsed = 10.8259 ms.
Time accumulated: CPU = 30.9443 s, elapsed = 60.3214 s (1m  0.3s).
Peak resident memory used = 144 Mbytes.


*******************************************************
Transient Analysis `transient145': time = (0 s -> 2 ns)
*******************************************************

Notice from spectre during IC analysis `timeSweep_cloned_144', during transient
        analysis `transient145'.
    GminDC = 1 pS is large enough to noticeably affect the DC solution.
        dV(nor2.net16) = 22.0497 mV
        Use the `gmin_check' option to eliminate or expand this report.

DC simulation time: CPU = 6.174 ms, elapsed = 7.53617 ms.

Notice from spectre during transient analysis `transient145'.
    No outputs were found. Loosening output filter criterion to `allpub'.


Opening the PSFXL file ./nor_ss.raw/transient145.tran.tran ...
Important parameter values:
    start = 0 s
    outputstart = 0 s
    stop = 2 ns
    step = 100 fs
    maxstep = 40 ps
    ic = all
    useprevic = no
    skipdc = no
    reltol = 1e-03
    abstol(V) = 1 uV
    abstol(I) = 1 pA
    temp = 0 C
    tnom = 27 C
    tempeffects = all
    errpreset = moderate
    method = traponly
    lteratio = 3.5
    relref = sigglobal
    cmin = 0 F
    gmin = 1 pS


Output and IC/nodeset summary:
                 probe  2       
                 save   3       (current)
                 save   165     (voltage)

......9......8......7......6...

Notice from spectre at time = 915.255 ps during transient analysis
        `transient145'.
    Found trapezoidal ringing on node nor10.3:A.

......9......8......7......6....

Notice from spectre at time = 955.255 ps during transient analysis
        `transient145'.
    Found trapezoidal ringing on node VVDD:p.

......9......8......7......6.....

Notice from spectre at time = 995.255 ps during transient analysis
        `transient145'.
    Found trapezoidal ringing on node nor10.3:A.

......9......8......7......6......5

Notice from spectre at time = 1.03525 ns during transient analysis
        `transient145'.
    Found trapezoidal ringing on node nor10.3:A.

......9......8......7......6......5.

Notice from spectre at time = 1.07525 ns during transient analysis
        `transient145'.
    Found trapezoidal ringing on node nor10.3:A.
        Further occurrences of this notice will be suppressed (except in log
        file).

......9......8......7......6......5......4......3......2......1......0
Number of accepted tran steps =             258

Notice from spectre during transient analysis `transient145'.
    Trapezoidal ringing is detected during tran analysis.
        Please use method=trap for better results and performance.


Maximum value achieved for any signal of each quantity: 
V: V(nor10.2:Q) = 1.506 V
I: I(VGND:p) = 125.1 uA
If your circuit contains signals of the same quantity that are vastly different
        in size (such as high voltage circuitry combined with low voltage
        control circuitry), you should consider specifying global option
        `bin_relref=yes'.

~~~~~~~~~~~~~~~~~~~~~~~~~~~~~~~~~
Post-Transient Simulation Summary
~~~~~~~~~~~~~~~~~~~~~~~~~~~~~~~~~
   -   To further speed up simulation, consider
          add ++aps on command line
~~~~~~~~~~~~~~~~~~~~~~~~~~~~~~~~~


During simulation, the CPU load for active processors is :
         0 (2.1 %)       1 (13.1 %)      2 (80.2 %)      3 (40.0 %)
         4 (9.0 %)       5 (19.7 %)      6 (14.0 %)      7 (5.2 %)
         8 (3.1 %)       9 (2.2 %)      10 (1.9 %)      11 (86.8 %)
        Total: 277.5%
Initial condition solution time: CPU = 6.234 ms, elapsed = 7.91693 ms.
Intrinsic tran analysis time:    CPU = 228.989 ms, elapsed = 344.621 ms.
Opening mt file: 
        /CASNFSHOME2/home/sstatthoudakis/Documents/spectre/Gates/NOR2/nor_validate/corners/corner_pin2/wire_load/nor_ss.mt144
Total time required for tran analysis `transient145': CPU = 239.01 ms, elapsed
        = 372.319 ms, util. = 64.2%.
Time accumulated: CPU = 31.1893 s, elapsed = 60.7325 s (1m  0.7s).
Peak resident memory used = 144 Mbytes.


Notice from spectre.
    2 notices suppressed.


***************************
Alter Group `altergroup145'
***************************
Time for altergroup145: CPU = 15.267 ms, elapsed = 16.1099 ms.
Time accumulated: CPU = 31.2047 s, elapsed = 60.7496 s (1m  0.7s).
Peak resident memory used = 144 Mbytes.


*******************************************************
Transient Analysis `transient146': time = (0 s -> 2 ns)
*******************************************************

Notice from spectre during IC analysis `timeSweep_cloned_145', during transient
        analysis `transient146'.
    GminDC = 1 pS is large enough to noticeably affect the DC solution.
        dV(nor10.net16) = 7.41707 mV
        Use the `gmin_check' option to eliminate or expand this report.

DC simulation time: CPU = 4.266 ms, elapsed = 5.46312 ms.

Notice from spectre during transient analysis `transient146'.
    No outputs were found. Loosening output filter criterion to `allpub'.


Opening the PSFXL file ./nor_ss.raw/transient146.tran.tran ...
Important parameter values:
    start = 0 s
    outputstart = 0 s
    stop = 2 ns
    step = 100 fs
    maxstep = 40 ps
    ic = all
    useprevic = no
    skipdc = no
    reltol = 1e-03
    abstol(V) = 1 uV
    abstol(I) = 1 pA
    temp = 50 C
    tnom = 27 C
    tempeffects = all
    errpreset = moderate
    method = traponly
    lteratio = 3.5
    relref = sigglobal
    cmin = 0 F
    gmin = 1 pS


Output and IC/nodeset summary:
                 probe  2       
                 save   3       (current)
                 save   165     (voltage)

......9......8......7......6..

Notice from spectre at time = 904.962 ps during transient analysis
        `transient146'.
    Found trapezoidal ringing on node nor10.3:A.

......9......8......7......6....

Notice from spectre at time = 944.962 ps during transient analysis
        `transient146'.
    Found trapezoidal ringing on node nor10.3:A.

......9......8......7......6.....

Notice from spectre at time = 984.962 ps during transient analysis
        `transient146'.
    Found trapezoidal ringing on node nor10.3:A.

......9......8......7......6......

Notice from spectre at time = 1.02496 ns during transient analysis
        `transient146'.
    Found trapezoidal ringing on node nor10.3:A.

......9......8......7......6......5.

Notice from spectre at time = 1.06496 ns during transient analysis
        `transient146'.
    Found trapezoidal ringing on node nor10.3:A.
        Further occurrences of this notice will be suppressed (except in log
        file).

......9......8......7......6......5......4......3......2......1......0
Number of accepted tran steps =             254

Notice from spectre during transient analysis `transient146'.
    Trapezoidal ringing is detected during tran analysis.
        Please use method=trap for better results and performance.


Maximum value achieved for any signal of each quantity: 
V: V(nor10.net16) = 1.502 V
I: I(VVDD:p) = 117.7 uA
If your circuit contains signals of the same quantity that are vastly different
        in size (such as high voltage circuitry combined with low voltage
        control circuitry), you should consider specifying global option
        `bin_relref=yes'.

~~~~~~~~~~~~~~~~~~~~~~~~~~~~~~~~~
Post-Transient Simulation Summary
~~~~~~~~~~~~~~~~~~~~~~~~~~~~~~~~~
   -   To further speed up simulation, consider
          add ++aps on command line
~~~~~~~~~~~~~~~~~~~~~~~~~~~~~~~~~


During simulation, the CPU load for active processors is :
         0 (2.1 %)       1 (13.1 %)      2 (80.3 %)      3 (39.8 %)
         4 (9.4 %)       5 (19.6 %)      6 (13.9 %)      7 (5.2 %)
         8 (3.1 %)       9 (2.2 %)      10 (1.8 %)      11 (86.9 %)
        Total: 277.4%
Initial condition solution time: CPU = 4.333 ms, elapsed = 5.83196 ms.
Intrinsic tran analysis time:    CPU = 226.589 ms, elapsed = 329.42 ms.
Opening mt file: 
        /CASNFSHOME2/home/sstatthoudakis/Documents/spectre/Gates/NOR2/nor_validate/corners/corner_pin2/wire_load/nor_ss.mt145
Total time required for tran analysis `transient146': CPU = 234.438 ms, elapsed
        = 351.432 ms, util. = 66.7%.
Time accumulated: CPU = 31.4453 s, elapsed = 61.14 s (1m  1.1s).
Peak resident memory used = 144 Mbytes.


Notice from spectre.
    4 notices suppressed.


***************************
Alter Group `altergroup146'
***************************
Time for altergroup146: CPU = 9.377 ms, elapsed = 10.2119 ms.
Time accumulated: CPU = 31.4548 s, elapsed = 61.1515 s (1m  1.2s).
Peak resident memory used = 144 Mbytes.


*******************************************************
Transient Analysis `transient147': time = (0 s -> 2 ns)
*******************************************************

Notice from spectre during IC analysis `timeSweep_cloned_146', during transient
        analysis `transient147'.
    GminDC = 1 pS is large enough to noticeably affect the DC solution.
        dV(nor8.net16) = 298.003 uV
        Use the `gmin_check' option to eliminate or expand this report.

DC simulation time: CPU = 4.006 ms, elapsed = 5.18513 ms.

Notice from spectre during transient analysis `transient147'.
    No outputs were found. Loosening output filter criterion to `allpub'.


Opening the PSFXL file ./nor_ss.raw/transient147.tran.tran ...
Important parameter values:
    start = 0 s
    outputstart = 0 s
    stop = 2 ns
    step = 100 fs
    maxstep = 40 ps
    ic = all
    useprevic = no
    skipdc = no
    reltol = 1e-03
    abstol(V) = 1 uV
    abstol(I) = 1 pA
    temp = 125 C
    tnom = 27 C
    tempeffects = all
    errpreset = moderate
    method = traponly
    lteratio = 3.5
    relref = sigglobal
    cmin = 0 F
    gmin = 1 pS


Output and IC/nodeset summary:
                 probe  2       
                 save   3       (current)
                 save   165     (voltage)

......9......

Notice from spectre at time = 379.672 ps during transient analysis
        `transient147'.
    Found trapezoidal ringing on node nor6.3:A.

......9......8......7......6...

Notice from spectre at time = 923.499 ps during transient analysis
        `transient147'.
    Found trapezoidal ringing on node VVDD:p.

......9......8......7......6....

Notice from spectre at time = 963.499 ps during transient analysis
        `transient147'.
    Found trapezoidal ringing on node VVDD:p.

......9......8......7......6......

Notice from spectre at time = 1.0035 ns during transient analysis
        `transient147'.
    Found trapezoidal ringing on node VVDD:p.

......9......8......7......6......5

Notice from spectre at time = 1.0435 ns during transient analysis
        `transient147'.
    Found trapezoidal ringing on node VVDD:p.
        Further occurrences of this notice will be suppressed (except in log
        file).

......9......8......7......6......5......4......3......2......1......0
Number of accepted tran steps =             245

Notice from spectre during transient analysis `transient147'.
    Trapezoidal ringing is detected during tran analysis.
        Please use method=trap for better results and performance.


Maximum value achieved for any signal of each quantity: 
V: V(nor10.1:Q) = 1.497 V
I: I(VGND:p) = 109.9 uA
If your circuit contains signals of the same quantity that are vastly different
        in size (such as high voltage circuitry combined with low voltage
        control circuitry), you should consider specifying global option
        `bin_relref=yes'.

~~~~~~~~~~~~~~~~~~~~~~~~~~~~~~~~~
Post-Transient Simulation Summary
~~~~~~~~~~~~~~~~~~~~~~~~~~~~~~~~~
   -   To further speed up simulation, consider
          add ++aps on command line
~~~~~~~~~~~~~~~~~~~~~~~~~~~~~~~~~


During simulation, the CPU load for active processors is :
         0 (2.1 %)       1 (13.0 %)      2 (80.4 %)      3 (39.5 %)
         4 (9.7 %)       5 (19.6 %)      6 (13.8 %)      7 (5.2 %)
         8 (3.1 %)       9 (2.2 %)      10 (1.8 %)      11 (86.9 %)
        Total: 277.4%
Initial condition solution time: CPU = 4.057 ms, elapsed = 5.58901 ms.
Intrinsic tran analysis time:    CPU = 188.393 ms, elapsed = 287.058 ms.
Opening mt file: 
        /CASNFSHOME2/home/sstatthoudakis/Documents/spectre/Gates/NOR2/nor_validate/corners/corner_pin2/wire_load/nor_ss.mt146
Total time required for tran analysis `transient147': CPU = 195.949 ms, elapsed
        = 308.577 ms, util. = 63.5%.
Time accumulated: CPU = 31.6558 s, elapsed = 61.4967 s (1m  1.5s).
Peak resident memory used = 144 Mbytes.


Notice from spectre.
    3 notices suppressed.

Licensing Information:
Lic Summary:
[14:48:37.461794] Cdslmd servers:5280@10.64.82.10
[14:48:37.461835] Feature usage summary:
[14:48:37.461840] Virtuoso_Multi_mode_Simulation


Aggregate audit (2:48:37 PM, Wed Oct 29, 2025):
Time used: CPU = 31.7 s, elapsed = 61.5 s (1m  1.5s), util. = 51.5%.
Time spent in licensing: elapsed = 34.2 ms.
Peak memory used = 145 Mbytes.
Simulation started at: 2:47:35 PM, Wed Oct 29, 2025, ended at: 2:48:37 PM, Wed
        Oct 29, 2025, with elapsed time (wall clock): 61.5 s (1m  1.5s).
spectre completes with 0 errors, 12 warnings, and 976 notices.
