
Spectre (R) Circuit Simulator
Version 23.1.0.242.isr1 64bit -- 7 Sep 2023
Copyright (C) 1989-2023 Cadence Design Systems, Inc. All rights reserved worldwide. Cadence and Spectre are registered trademarks of Cadence Design Systems, Inc. All others are the property of their respective holders.

Includes RSA BSAFE(R) Cryptographic or Security Protocol Software from RSA Security, Inc.

User: sstatthoudakis   Host: torreyridge   HostID: 7F0100   PID: 31154
Memory  available: 104.4180 GB  physical: 135.0278 GB
Linux   : CentOS Linux release 7 (Core)
CPU Type: Intel(R) Xeon(R) Silver 4114 CPU @ 2.20GHz
All processors running at 2194.8 MHz
        Socket: Processors
        0:       0
        2:       1
        4:       2
        6:       3
        8:       4
        10:      5
        12:      6
        14:      7
        16:      8
        18:      9
        20:     10
        22:     11
        
System load averages (1min, 5min, 15min) : 26.0 %, 26.6 %, 25.1 %
This is a virtual machine


Simulating `nor_tt.scs' on torreyridge at 2:48:37 PM, Wed Oct 29, 2025 (process id: 31154).
Current working directory: /CASNFSHOME2/home/sstatthoudakis/Documents/spectre/Gates/NOR2/nor_validate/corners/corner_pin2/wire_load
Command line:
     \
        /CASNFSHOME/home/edatools/cadence/2023-24/RHELx86/SPECTRE_23.10.242/tools.lnx86/bin/spectre  \
        -64 nor_tt.scs

Licensing Information:
[14:48:37.231897] Configured Lic search path (22.01-s002): 5280@10.64.82.10

Licensing Information:
[14:48:37.417498] Periodic Lic check successful

Loading /CASNFSHOME/home/edatools/cadence/2023-24/RHELx86/SPECTRE_23.10.242/tools.lnx86/cmi/lib/64bit/5.0/libinfineon_sh.so ...
Loading /CASNFSHOME/home/edatools/cadence/2023-24/RHELx86/SPECTRE_23.10.242/tools.lnx86/cmi/lib/64bit/5.0/libphilips_I_sh.so ...
Loading /CASNFSHOME/home/edatools/cadence/2023-24/RHELx86/SPECTRE_23.10.242/tools.lnx86/cmi/lib/64bit/5.0/libphilips_sh.so ...
Loading /CASNFSHOME/home/edatools/cadence/2023-24/RHELx86/SPECTRE_23.10.242/tools.lnx86/cmi/lib/64bit/5.0/libsparam_sh.so ...
Loading /CASNFSHOME/home/edatools/cadence/2023-24/RHELx86/SPECTRE_23.10.242/tools.lnx86/cmi/lib/64bit/5.0/libstmodels_sh.so ...
Reading file:  /CASNFSHOME2/home/sstatthoudakis/Documents/spectre/Gates/NOR2/nor_validate/corners/corner_pin2/wire_load/nor_tt.scs
Reading file:  /CASNFSHOME/home/edatools/cadence/2023-24/RHELx86/SPECTRE_23.10.242/tools.lnx86/spectre/etc/configs/spectre.cfg
Reading file:  /CASNFSHOME/home/tsaikaterini/IHP/IHP_Generation_files/130ng/ihp013ng_include_all.scs
Reading file:  /CASNFSHOME/home/tsaikaterini/IHP/IHP_Generation_files/130ng/SG13S_618_rev1.12.15/tech/SG13_HBT/VBIC/spectre/SG13_cornerBIP.scs
Reading file:  /CASNFSHOME/home/tsaikaterini/IHP/IHP_Generation_files/130ng/SG13S_618_rev1.12.15/tech/SG13_HBT/VBIC/spectre/SG13_hbt.lib
Reading file:  /CASNFSHOME/home/tsaikaterini/IHP/IHP_Generation_files/130ng/SG13S_618_rev1.12.15/tech/SG13_HBT/VBIC/spectre/SG13_hbt_mm.scs
Reading file:  /CASNFSHOME/home/tsaikaterini/IHP/IHP_Generation_files/130ng/SG13S_618_rev1.12.15/tech/SG13_HBT/VBIC/spectre/SG13_hbt_stat.scs
Reading file:  /CASNFSHOME/home/tsaikaterini/IHP/IHP_Generation_files/130ng/SG13S_618_rev1.12.15/tech/SG13_MOS/library/spectre/cornerMOSlv_psp.scs
Reading file:  /CASNFSHOME/home/tsaikaterini/IHP/IHP_Generation_files/130ng/SG13S_618_rev1.12.15/tech/SG13_MOS/library/spectre/sg13_moslv_psp_stat.scs
Reading file:  /CASNFSHOME/home/tsaikaterini/IHP/IHP_Generation_files/130ng/SG13S_618_rev1.12.15/tech/SG13_MOS/library/spectre/sg13_moslv_psp_mod.lib
Reading file:  /CASNFSHOME/home/tsaikaterini/IHP/IHP_Generation_files/130ng/SG13S_618_rev1.12.15/tech/SG13_MOS/library/spectre/sg13_moslv_psp_parm.scs
Reading file:  /CASNFSHOME/home/tsaikaterini/IHP/IHP_Generation_files/130ng/SG13S_618_rev1.12.15/tech/SG13_MOS/library/spectre/cornerMOShv_psp.scs
Reading file:  /CASNFSHOME/home/tsaikaterini/IHP/IHP_Generation_files/130ng/SG13S_618_rev1.12.15/tech/SG13_MOS/library/spectre/sg13_moshv_psp_stat.scs
Reading file:  /CASNFSHOME/home/tsaikaterini/IHP/IHP_Generation_files/130ng/SG13S_618_rev1.12.15/tech/SG13_MOS/library/spectre/sg13_moshv_psp_mod.lib
Reading file:  /CASNFSHOME/home/tsaikaterini/IHP/IHP_Generation_files/130ng/SG13S_618_rev1.12.15/tech/SG13_MOS/library/spectre/sg13_moshv_psp_parm.scs

Warning from spectre in `nmoselt', during circuit read-in.
    WARNING (SFE-2296): "/CASNFSHOME/home/tsaikaterini/IHP/IHP_Generation_files/130ng/SG13S_618_rev1.12.15/tech/SG13_MOS/library/spectre/sg13_moshv_psp_mod.lib" 79: The inline subckt definition `nmoselt' does not contain any inline components. The `inline' qualifier will therefore be ignored.

Reading file:  /CASNFSHOME/home/tsaikaterini/IHP/IHP_Generation_files/130ng/SG13S_618_rev1.12.15/tech/SG13_MOS/library/spectre/sg13_svaricaphv_mosvar_mod.lib
Reading file:  /CASNFSHOME/home/tsaikaterini/IHP/IHP_Generation_files/130ng/SG13S_618_rev1.12.15/tech/SG13_PASSIVES/spectre/SG13_cornerRES.scs
Reading file:  /CASNFSHOME/home/tsaikaterini/IHP/IHP_Generation_files/130ng/SG13S_618_rev1.12.15/tech/SG13_PASSIVES/spectre/SG13_res_mm.scs
Reading file:  /CASNFSHOME/home/tsaikaterini/IHP/IHP_Generation_files/130ng/SG13S_618_rev1.12.15/tech/SG13_PASSIVES/spectre/SG13_res_stat.scs
Reading file:  /CASNFSHOME/home/tsaikaterini/IHP/IHP_Generation_files/130ng/SG13S_618_rev1.12.15/tech/SG13_PASSIVES/spectre/SG13_res.lib
Reading file:  /CASNFSHOME/home/tsaikaterini/IHP/IHP_Generation_files/130ng/SG13S_618_rev1.12.15/tech/SG13_PASSIVES/spectre/SG13_cornerCAP.scs
Reading file:  /CASNFSHOME/home/tsaikaterini/IHP/IHP_Generation_files/130ng/SG13S_618_rev1.12.15/tech/SG13_PASSIVES/spectre/SG13_cap_mm.scs
Reading file:  /CASNFSHOME/home/tsaikaterini/IHP/IHP_Generation_files/130ng/SG13S_618_rev1.12.15/tech/SG13_PASSIVES/spectre/SG13_cap_stat.scs
Reading file:  /CASNFSHOME/home/tsaikaterini/IHP/IHP_Generation_files/130ng/SG13S_618_rev1.12.15/tech/SG13_PASSIVES/spectre/SG13_cap.lib
Reading file:  /CASNFSHOME/home/tsaikaterini/IHP/IHP_Generation_files/130ng/SG13S_618_rev1.12.15/tech/SG13_PASSIVES/spectre/Ind_unit_4PI
Reading file:  /CASNFSHOME/home/tsaikaterini/IHP/IHP_Generation_files/130ng/SG13S_618_rev1.12.15/tech/SG13_PASSIVES/spectre/Parameters_define_4PI
Reading file:  /CASNFSHOME/home/tsaikaterini/IHP/IHP_Generation_files/130ng/SG13S_618_rev1.12.15/tech/SG13_PASSIVES/spectre/sg13s_dschottky_nbl1_mod.lib
Reading file:  /CASNFSHOME/home/tsaikaterini/IHP/IHP_Generation_files/130ng/SG13S_618_rev1.12.15/tech/SG13_PASSIVES/spectre/SG13_diodes.lib
Reading file:  /CASNFSHOME/home/tsaikaterini/IHP/IHP_Generation_files/130ng/SG13S_618_rev1.12.15/tech/SG13_MOS/library/spectre/CheckMOSstat.scs
Reading file:  /CASNFSHOME/home/tsaikaterini/IHP/IHP_Generation_files/130ng/SG13S_618_rev1.12.15/tech/SG13_MOS/library/spectre/CheckMOSdyn.scs
Reading file:  /CASNFSHOME/home/tsaikaterini/IHP/IHP_Generation_files/130ng/SG13S_618_rev1.12.15/tech/SG13_ESD/spectre/SG13_esd.lib
Reading file:  /CASNFSHOME/home/tsaikaterini/IHP/IHP_Generation_files/130ng/SG13S_618_rev1.12.15/tech/SG13_PASSIVES/spectre/SG13_cornerTSV.scs
Reading file:  /CASNFSHOME/home/tsaikaterini/IHP/IHP_Generation_files/130ng/SG13S_618_rev1.12.15/tech/SG13_PASSIVES/spectre/SG13_paramsTSV.scs
Reading file:  /CASNFSHOME/home/tsaikaterini/IHP/IHP_Generation_files/130ng/SG13S_618_rev1.12.15/tech/SG13_PASSIVES/spectre/SG13_tsv.lib
Reading file:  /CASNFSHOME/home/tsaikaterini/IHP/IHP_Generation_files/130ng/ixc013ng_stdcell_rc.scs
Time for NDB Parsing: CPU = 631.015 ms, elapsed = 1.31978 s.
Time accumulated: CPU = 746.021 ms, elapsed = 1.31978 s.
Peak resident memory used = 111 Mbytes.


Warning from spectre in `NO2JIX0':`nor1', during hierarchy flattening.
    WARNING (SFE-103): "/CASNFSHOME/home/tsaikaterini/IHP/IHP_Generation_files/130ng/ixc013ng_stdcell_rc.scs" 28325: Subcircuit parameter `nrd', defined for subcircuit `sg13_lv_pmos', has been ignored because it is invalid. Check the parameters that are defined for the instantiated subcircuit and rerun the simulation.
    WARNING (SFE-103): "/CASNFSHOME/home/tsaikaterini/IHP/IHP_Generation_files/130ng/ixc013ng_stdcell_rc.scs" 28325: Subcircuit parameter `nrs', defined for subcircuit `sg13_lv_pmos', has been ignored because it is invalid. Check the parameters that are defined for the instantiated subcircuit and rerun the simulation.
    WARNING (SFE-103): "/CASNFSHOME/home/tsaikaterini/IHP/IHP_Generation_files/130ng/ixc013ng_stdcell_rc.scs" 28328: Subcircuit parameter `nrd', defined for subcircuit `sg13_lv_pmos', has been ignored because it is invalid. Check the parameters that are defined for the instantiated subcircuit and rerun the simulation.
    WARNING (SFE-103): "/CASNFSHOME/home/tsaikaterini/IHP/IHP_Generation_files/130ng/ixc013ng_stdcell_rc.scs" 28328: Subcircuit parameter `nrs', defined for subcircuit `sg13_lv_pmos', has been ignored because it is invalid. Check the parameters that are defined for the instantiated subcircuit and rerun the simulation.
    WARNING (SFE-103): "/CASNFSHOME/home/tsaikaterini/IHP/IHP_Generation_files/130ng/ixc013ng_stdcell_rc.scs" 28330: Subcircuit parameter `nrd', defined for subcircuit `sg13_lv_nmos', has been ignored because it is invalid. Check the parameters that are defined for the instantiated subcircuit and rerun the simulation.
        Further occurrences of this warning will be suppressed.

Time for Elaboration: CPU = 33.401 ms, elapsed = 174.25 ms.
Time accumulated: CPU = 779.632 ms, elapsed = 1.49566 s.
Peak resident memory used = 119 Mbytes.


Notice from spectre in `NO2JIX0':`nor1', during hierarchy flattening.
    nor1.c5: Terminals are connected together (to node `VSS').
Notice from spectre in `NO2JIX0':`nor2', during hierarchy flattening.
    nor2.c5: Terminals are connected together (to node `VSS').
Notice from spectre in `NO2JIX0':`nor3', during hierarchy flattening.
    nor3.c5: Terminals are connected together (to node `VSS').
Notice from spectre in `NO2JIX0':`nor4', during hierarchy flattening.
    nor4.c5: Terminals are connected together (to node `VSS').
Notice from spectre in `NO2JIX0':`nor5', during hierarchy flattening.
    nor5.c5: Terminals are connected together (to node `VSS').
        Further occurrences of this notice will be suppressed.

Loading /CASNFSHOME/home/edatools/cadence/2023-24/RHELx86/SPECTRE_23.10.242/tools.lnx86/mdl/lib/64bit/libSpectreEH_sh.so ...

Time for EDB Visiting: CPU = 28.869 ms, elapsed = 33.494 ms.
Time accumulated: CPU = 808.725 ms, elapsed = 1.53085 s.
Peak resident memory used = 126 Mbytes.


Warning from spectre during initial setup.
    WARNING (SPECTRE-17237): Assert violations will be written to the sqldb file because the 'checklimitdest' option has not been specified.
    WARNING (SPECTRE-17607): Assert `check_sg13s_lv_nmosHV_vgs' is ignored because it contains an expression which is not supported by native evaluator. 
    WARNING (SPECTRE-17607): Assert `check_sg13s_lv_nmosHV_vgd' is ignored because it contains an expression which is not supported by native evaluator. 
    WARNING (SPECTRE-17607): Assert `check_sg13s_lv_nmosHV_vds' is ignored because it contains an expression which is not supported by native evaluator. 
    WARNING (SPECTRE-17607): Assert `check_sg13s_lv_nmosHV_vdb' is ignored because it contains an expression which is not supported by native evaluator. 
    WARNING (SPECTRE-17607): Assert `check_sg13s_lv_nmosHV_vgb' is ignored because it contains an expression which is not supported by native evaluator. 
        Further occurrences of this warning will be suppressed.
Notice from spectre during topology check.
    Only one connection to the following 11 nodes:
        X_in1_wire.Capacitance*M
        X_out_wire.Capacitance*M
        X_out2_wire.Capacitance*M
        X_out3_wire.Capacitance*M
        X_out4_wire.Capacitance*M
        Further occurrences of this notice will be suppressed.
    No DC path from node `X_in1_wire.Capacitance*M' to ground, Gmin installed to provide path.
    No DC path from node `X_out_wire.Capacitance*M' to ground, Gmin installed to provide path.
    No DC path from node `X_out2_wire.Capacitance*M' to ground, Gmin installed to provide path.
    No DC path from node `X_out3_wire.Capacitance*M' to ground, Gmin installed to provide path.
    No DC path from node `X_out4_wire.Capacitance*M' to ground, Gmin installed to provide path.
        Further occurrences of this notice will be suppressed.


Global user options:
               temp = 0

Scoped user options:

Circuit inventory:
              nodes 165
          capacitor 181   
          pspnqs103 40    
           resistor 131   
            vsource 3     

Analysis and control statement inventory:
         altergroup 146   
               tran 147   

Output statements:
             .probe 0     
           .measure 3     
               save 0     

Design checks inventory:
          paramtest 160   
             assert 40    


Notice from spectre.
    12 notices suppressed.
    82 warnings suppressed.

Time for parsing: CPU = 14.375 ms, elapsed = 1.22302 s.
Time accumulated: CPU = 823.298 ms, elapsed = 2.7554 s.
Peak resident memory used = 129 Mbytes.

~~~~~~~~~~~~~~~~~~~~~~
Pre-Simulation Summary
~~~~~~~~~~~~~~~~~~~~~~
~~~~~~~~~~~~~~~~~~~~~~

Notice from spectre during transient analysis `transient1'.
    No checklimit analysis defined for asserts. A default checklimit analysis 'SpectreChecklimitAnal' has been created with all asserts enabled.


*****************************************************
Transient Analysis `transient1': time = (0 s -> 2 ns)
*****************************************************

Notice from spectre during IC analysis `timeSweep', during transient analysis `transient1'.
    GminDC = 1 pS is large enough to noticeably affect the DC solution.
        dV(nor4.net16) = 10.4918 mV
        Use the `gmin_check' option to eliminate or expand this report.

DC simulation time: CPU = 4.422 ms, elapsed = 5.73301 ms.

Notice from spectre during transient analysis `transient1'.
    No outputs were found. Loosening output filter criterion to `allpub'.


Opening the PSFXL file ./nor_tt.raw/transient1.tran.tran ...
Important parameter values:
    start = 0 s
    outputstart = 0 s
    stop = 2 ns
    step = 100 fs
    maxstep = 40 ps
    ic = all
    useprevic = no
    skipdc = no
    reltol = 1e-03
    abstol(V) = 1 uV
    abstol(I) = 1 pA
    temp = 0 C
    tnom = 27 C
    tempeffects = all
    errpreset = moderate
    method = traponly
    lteratio = 3.5
    relref = sigglobal
    cmin = 0 F
    gmin = 1 pS


Output and IC/nodeset summary:
                 probe  2       
                 save   3       (current)
                 save   165     (voltage)

......9......8......7......6......5......4......3......2......1......0
Number of accepted tran steps =             241

Maximum value achieved for any signal of each quantity: 
V: V(nor10.net16) = 1.025 V
I: I(VGND:p) = 58.37 uA
If your circuit contains signals of the same quantity that are vastly different in size (such as high voltage circuitry combined with low voltage control circuitry), you should consider specifying global option `bin_relref=yes'.

~~~~~~~~~~~~~~~~~~~~~~~~~~~~~~~~~
Post-Transient Simulation Summary
~~~~~~~~~~~~~~~~~~~~~~~~~~~~~~~~~
   -   To further speed up simulation, consider
          add ++aps on command line
~~~~~~~~~~~~~~~~~~~~~~~~~~~~~~~~~


During simulation, the CPU load for active processors is :
         0 (13.4 %)      1 (13.8 %)      2 (100.0 %)     3 (5.7 %)
         4 (41.1 %)      5 (8.8 %)       6 (3.7 %)       7 (8.7 %)
         8 (7.7 %)       9 (8.4 %)      10 (32.9 %)     11 (38.1 %)
        Total: 282.3%
Initial condition solution time: CPU = 4.497 ms, elapsed = 6.10805 ms.
Intrinsic tran analysis time:    CPU = 187.628 ms, elapsed = 238.257 ms.
Opening measure  file:  /CASNFSHOME2/home/sstatthoudakis/Documents/spectre/Gates/NOR2/nor_validate/corners/corner_pin2/wire_load/nor_tt.measure
Opening mt file:  /CASNFSHOME2/home/sstatthoudakis/Documents/spectre/Gates/NOR2/nor_validate/corners/corner_pin2/wire_load/nor_tt.mt0
Total time required for tran analysis `transient1': CPU = 270.603 ms, elapsed = 500.332 ms, util. = 54.1%.
Time accumulated: CPU = 1.10608 s, elapsed = 3.29876 s.
Peak resident memory used = 138 Mbytes.


*************************
Alter Group `altergroup1'
*************************
Time for altergroup1: CPU = 11.832 ms, elapsed = 12.192 ms.
Time accumulated: CPU = 1.11821 s, elapsed = 3.31219 s.
Peak resident memory used = 138 Mbytes.


*****************************************************
Transient Analysis `transient2': time = (0 s -> 2 ns)
*****************************************************

Notice from spectre during IC analysis `timeSweep_cloned_1', during transient analysis `transient2'.
    GminDC = 1 pS is large enough to noticeably affect the DC solution.
        dV(nor2.net16) = 1.50521 mV
        Use the `gmin_check' option to eliminate or expand this report.

DC simulation time: CPU = 4.252 ms, elapsed = 6.22392 ms.

Notice from spectre during transient analysis `transient2'.
    No outputs were found. Loosening output filter criterion to `allpub'.


Opening the PSFXL file ./nor_tt.raw/transient2.tran.tran ...
Important parameter values:
    start = 0 s
    outputstart = 0 s
    stop = 2 ns
    step = 100 fs
    maxstep = 40 ps
    ic = all
    useprevic = no
    skipdc = no
    reltol = 1e-03
    abstol(V) = 1 uV
    abstol(I) = 1 pA
    temp = 50 C
    tnom = 27 C
    tempeffects = all
    errpreset = moderate
    method = traponly
    lteratio = 3.5
    relref = sigglobal
    cmin = 0 F
    gmin = 1 pS


Output and IC/nodeset summary:
                 probe  2       
                 save   3       (current)
                 save   165     (voltage)

......9......8......7......6......5......4......3......2......1......0
Number of accepted tran steps =             237

Maximum value achieved for any signal of each quantity: 
V: V(nor10.net16) = 1.016 V
I: I(VGND:p) = 55.61 uA
If your circuit contains signals of the same quantity that are vastly different in size (such as high voltage circuitry combined with low voltage control circuitry), you should consider specifying global option `bin_relref=yes'.

~~~~~~~~~~~~~~~~~~~~~~~~~~~~~~~~~
Post-Transient Simulation Summary
~~~~~~~~~~~~~~~~~~~~~~~~~~~~~~~~~
   -   To further speed up simulation, consider
          add ++aps on command line
~~~~~~~~~~~~~~~~~~~~~~~~~~~~~~~~~


During simulation, the CPU load for active processors is :
         0 (12.6 %)      1 (13.6 %)      2 (100.0 %)     3 (5.6 %)
         4 (35.8 %)      5 (16.2 %)      6 (3.7 %)       7 (7.6 %)
         8 (6.5 %)       9 (7.0 %)      10 (42.8 %)     11 (32.0 %)
        Total: 283.4%
Initial condition solution time: CPU = 4.335 ms, elapsed = 6.64878 ms.
Intrinsic tran analysis time:    CPU = 188.705 ms, elapsed = 251.782 ms.
Opening mt file:  /CASNFSHOME2/home/sstatthoudakis/Documents/spectre/Gates/NOR2/nor_validate/corners/corner_pin2/wire_load/nor_tt.mt1
Total time required for tran analysis `transient2': CPU = 196.849 ms, elapsed = 276.186 ms, util. = 71.3%.
Time accumulated: CPU = 1.32063 s, elapsed = 3.63229 s.
Peak resident memory used = 138 Mbytes.


*************************
Alter Group `altergroup2'
*************************
Time for altergroup2: CPU = 6.584 ms, elapsed = 7.13205 ms.
Time accumulated: CPU = 1.32733 s, elapsed = 3.64141 s.
Peak resident memory used = 138 Mbytes.


*****************************************************
Transient Analysis `transient3': time = (0 s -> 2 ns)
*****************************************************
DC simulation time: CPU = 3.575 ms, elapsed = 3.57509 ms.

Notice from spectre during transient analysis `transient3'.
    No outputs were found. Loosening output filter criterion to `allpub'.


Opening the PSFXL file ./nor_tt.raw/transient3.tran.tran ...
Important parameter values:
    start = 0 s
    outputstart = 0 s
    stop = 2 ns
    step = 100 fs
    maxstep = 40 ps
    ic = all
    useprevic = no
    skipdc = no
    reltol = 1e-03
    abstol(V) = 1 uV
    abstol(I) = 1 pA
    temp = 125 C
    tnom = 27 C
    tempeffects = all
    errpreset = moderate
    method = traponly
    lteratio = 3.5
    relref = sigglobal
    cmin = 0 F
    gmin = 1 pS


Output and IC/nodeset summary:
                 probe  2       
                 save   3       (current)
                 save   165     (voltage)

......9......8......7......6......5......4......3......2......1......0
Number of accepted tran steps =             240

Maximum value achieved for any signal of each quantity: 
V: V(nor10.net16) = 1.004 V
I: I(VGND:p) = 54.58 uA
If your circuit contains signals of the same quantity that are vastly different in size (such as high voltage circuitry combined with low voltage control circuitry), you should consider specifying global option `bin_relref=yes'.

~~~~~~~~~~~~~~~~~~~~~~~~~~~~~~~~~
Post-Transient Simulation Summary
~~~~~~~~~~~~~~~~~~~~~~~~~~~~~~~~~
   -   To further speed up simulation, consider
          add ++aps on command line
~~~~~~~~~~~~~~~~~~~~~~~~~~~~~~~~~


During simulation, the CPU load for active processors is :
         0 (11.6 %)      1 (20.5 %)      2 (100.0 %)     3 (7.0 %)
         4 (33.2 %)      5 (19.8 %)      6 (3.9 %)       7 (7.2 %)
         8 (6.2 %)       9 (7.0 %)      10 (42.2 %)     11 (29.5 %)
        Total: 288.2%
Initial condition solution time: CPU = 3.657 ms, elapsed = 4.30107 ms.
Intrinsic tran analysis time:    CPU = 169.117 ms, elapsed = 235.598 ms.
Opening mt file:  /CASNFSHOME2/home/sstatthoudakis/Documents/spectre/Gates/NOR2/nor_validate/corners/corner_pin2/wire_load/nor_tt.mt2
Total time required for tran analysis `transient3': CPU = 175.997 ms, elapsed = 258.858 ms, util. = 68%.
Time accumulated: CPU = 1.50912 s, elapsed = 3.94633 s.
Peak resident memory used = 138 Mbytes.


*************************
Alter Group `altergroup3'
*************************
Time for altergroup3: CPU = 6.392 ms, elapsed = 6.92892 ms.
Time accumulated: CPU = 1.51564 s, elapsed = 3.95463 s.
Peak resident memory used = 138 Mbytes.


*****************************************************
Transient Analysis `transient4': time = (0 s -> 2 ns)
*****************************************************

Notice from spectre during IC analysis `timeSweep_cloned_3', during transient analysis `transient4'.
    GminDC = 1 pS is large enough to noticeably affect the DC solution.
        dV(nor6.net16) = 10.4923 mV
        Use the `gmin_check' option to eliminate or expand this report.

DC simulation time: CPU = 4.242 ms, elapsed = 6.31404 ms.

Notice from spectre during transient analysis `transient4'.
    No outputs were found. Loosening output filter criterion to `allpub'.


Opening the PSFXL file ./nor_tt.raw/transient4.tran.tran ...
Important parameter values:
    start = 0 s
    outputstart = 0 s
    stop = 2 ns
    step = 100 fs
    maxstep = 40 ps
    ic = all
    useprevic = no
    skipdc = no
    reltol = 1e-03
    abstol(V) = 1 uV
    abstol(I) = 1 pA
    temp = 0 C
    tnom = 27 C
    tempeffects = all
    errpreset = moderate
    method = traponly
    lteratio = 3.5
    relref = sigglobal
    cmin = 0 F
    gmin = 1 pS


Output and IC/nodeset summary:
                 probe  2       
                 save   3       (current)
                 save   165     (voltage)

......9......8......7......6......5....

Notice from spectre at time = 1.155 ns during transient analysis `transient4'.
    Found trapezoidal ringing on node VVDD:p.

......9......8......7......6......5......4......3......2......1......0
Number of accepted tran steps =             252

Notice from spectre during transient analysis `transient4'.
    Trapezoidal ringing is detected during tran analysis.
        Please use method=trap for better results and performance.


Maximum value achieved for any signal of each quantity: 
V: V(nor10.net16) = 1.036 V
I: I(VGND:p) = 60.45 uA
If your circuit contains signals of the same quantity that are vastly different in size (such as high voltage circuitry combined with low voltage control circuitry), you should consider specifying global option `bin_relref=yes'.

~~~~~~~~~~~~~~~~~~~~~~~~~~~~~~~~~
Post-Transient Simulation Summary
~~~~~~~~~~~~~~~~~~~~~~~~~~~~~~~~~
   -   To further speed up simulation, consider
          add ++aps on command line
~~~~~~~~~~~~~~~~~~~~~~~~~~~~~~~~~


During simulation, the CPU load for active processors is :
         0 (10.6 %)      1 (19.3 %)      2 (100.0 %)     3 (7.5 %)
         4 (34.9 %)      5 (19.7 %)      6 (12.0 %)      7 (6.6 %)
         8 (6.4 %)       9 (6.4 %)      10 (39.9 %)     11 (26.8 %)
        Total: 289.9%
Initial condition solution time: CPU = 4.299 ms, elapsed = 6.74796 ms.
Intrinsic tran analysis time:    CPU = 219.272 ms, elapsed = 303.365 ms.
Opening mt file:  /CASNFSHOME2/home/sstatthoudakis/Documents/spectre/Gates/NOR2/nor_validate/corners/corner_pin2/wire_load/nor_tt.mt3
Total time required for tran analysis `transient4': CPU = 227.608 ms, elapsed = 333.996 ms, util. = 68.1%.
Time accumulated: CPU = 1.74936 s, elapsed = 4.33652 s.
Peak resident memory used = 138 Mbytes.


*************************
Alter Group `altergroup4'
*************************
Time for altergroup4: CPU = 7.612 ms, elapsed = 8.00514 ms.
Time accumulated: CPU = 1.7571 s, elapsed = 4.34598 s.
Peak resident memory used = 138 Mbytes.


*****************************************************
Transient Analysis `transient5': time = (0 s -> 2 ns)
*****************************************************

Notice from spectre during IC analysis `timeSweep_cloned_4', during transient analysis `transient5'.
    GminDC = 1 pS is large enough to noticeably affect the DC solution.
        dV(nor8.net16) = 1.50638 mV
        Use the `gmin_check' option to eliminate or expand this report.

DC simulation time: CPU = 4.046 ms, elapsed = 5.72515 ms.

Notice from spectre during transient analysis `transient5'.
    No outputs were found. Loosening output filter criterion to `allpub'.


Opening the PSFXL file ./nor_tt.raw/transient5.tran.tran ...
Important parameter values:
    start = 0 s
    outputstart = 0 s
    stop = 2 ns
    step = 100 fs
    maxstep = 40 ps
    ic = all
    useprevic = no
    skipdc = no
    reltol = 1e-03
    abstol(V) = 1 uV
    abstol(I) = 1 pA
    temp = 50 C
    tnom = 27 C
    tempeffects = all
    errpreset = moderate
    method = traponly
    lteratio = 3.5
    relref = sigglobal
    cmin = 0 F
    gmin = 1 pS


Output and IC/nodeset summary:
                 probe  2       
                 save   3       (current)
                 save   165     (voltage)

......9......8......7......6......5....

Notice from spectre at time = 1.155 ns during transient analysis `transient5'.
    Found trapezoidal ringing on node VVDD:p.

......9......8......7......6......5......4......3......2......1......0
Number of accepted tran steps =             237

Notice from spectre during transient analysis `transient5'.
    Trapezoidal ringing is detected during tran analysis.
        Please use method=trap for better results and performance.


Maximum value achieved for any signal of each quantity: 
V: V(nor10.net16) = 1.025 V
I: I(VGND:p) = 57.78 uA
If your circuit contains signals of the same quantity that are vastly different in size (such as high voltage circuitry combined with low voltage control circuitry), you should consider specifying global option `bin_relref=yes'.

~~~~~~~~~~~~~~~~~~~~~~~~~~~~~~~~~
Post-Transient Simulation Summary
~~~~~~~~~~~~~~~~~~~~~~~~~~~~~~~~~
   -   To further speed up simulation, consider
          add ++aps on command line
~~~~~~~~~~~~~~~~~~~~~~~~~~~~~~~~~


During simulation, the CPU load for active processors is :
         0 (9.8 %)       1 (17.9 %)      2 (100.0 %)     3 (7.0 %)
         4 (37.0 %)      5 (18.5 %)      6 (18.5 %)      7 (6.1 %)
         8 (6.1 %)       9 (5.9 %)      10 (36.9 %)     11 (24.8 %)
        Total: 288.3%
Initial condition solution time: CPU = 4.099 ms, elapsed = 6.26802 ms.
Intrinsic tran analysis time:    CPU = 175.038 ms, elapsed = 257.356 ms.
Opening mt file:  /CASNFSHOME2/home/sstatthoudakis/Documents/spectre/Gates/NOR2/nor_validate/corners/corner_pin2/wire_load/nor_tt.mt4
Total time required for tran analysis `transient5': CPU = 182.493 ms, elapsed = 282.366 ms, util. = 64.6%.
Time accumulated: CPU = 1.94466 s, elapsed = 4.67183 s.
Peak resident memory used = 138 Mbytes.


*************************
Alter Group `altergroup5'
*************************
Time for altergroup5: CPU = 6.636 ms, elapsed = 7.15995 ms.
Time accumulated: CPU = 1.9514 s, elapsed = 4.68043 s.
Peak resident memory used = 138 Mbytes.


*****************************************************
Transient Analysis `transient6': time = (0 s -> 2 ns)
*****************************************************
DC simulation time: CPU = 3.529 ms, elapsed = 3.53003 ms.

Notice from spectre during transient analysis `transient6'.
    No outputs were found. Loosening output filter criterion to `allpub'.


Opening the PSFXL file ./nor_tt.raw/transient6.tran.tran ...
Important parameter values:
    start = 0 s
    outputstart = 0 s
    stop = 2 ns
    step = 100 fs
    maxstep = 40 ps
    ic = all
    useprevic = no
    skipdc = no
    reltol = 1e-03
    abstol(V) = 1 uV
    abstol(I) = 1 pA
    temp = 125 C
    tnom = 27 C
    tempeffects = all
    errpreset = moderate
    method = traponly
    lteratio = 3.5
    relref = sigglobal
    cmin = 0 F
    gmin = 1 pS


Output and IC/nodeset summary:
                 probe  2       
                 save   3       (current)
                 save   165     (voltage)

......9......8......7......6......5.....

Notice from spectre at time = 1.155 ns during transient analysis `transient6'.
    Found trapezoidal ringing on node nor8.3:A.

......9......8......7......6......5......4......3......2......1......0
Number of accepted tran steps =             234

Notice from spectre during transient analysis `transient6'.
    Trapezoidal ringing is detected during tran analysis.
        Please use method=trap for better results and performance.


Maximum value achieved for any signal of each quantity: 
V: V(nor10.2:Q) = 1.014 V
I: I(VGND:p) = 55.74 uA
If your circuit contains signals of the same quantity that are vastly different in size (such as high voltage circuitry combined with low voltage control circuitry), you should consider specifying global option `bin_relref=yes'.

~~~~~~~~~~~~~~~~~~~~~~~~~~~~~~~~~
Post-Transient Simulation Summary
~~~~~~~~~~~~~~~~~~~~~~~~~~~~~~~~~
   -   To further speed up simulation, consider
          add ++aps on command line
~~~~~~~~~~~~~~~~~~~~~~~~~~~~~~~~~


During simulation, the CPU load for active processors is :
         0 (9.2 %)       1 (16.8 %)      2 (100.0 %)     3 (6.5 %)
         4 (38.5 %)      5 (17.3 %)      6 (23.6 %)      7 (5.7 %)
         8 (6.5 %)       9 (5.7 %)      10 (34.5 %)     11 (23.2 %)
        Total: 287.6%
Initial condition solution time: CPU = 3.596 ms, elapsed = 4.11892 ms.
Intrinsic tran analysis time:    CPU = 164.543 ms, elapsed = 237.445 ms.
Opening mt file:  /CASNFSHOME2/home/sstatthoudakis/Documents/spectre/Gates/NOR2/nor_validate/corners/corner_pin2/wire_load/nor_tt.mt5
Total time required for tran analysis `transient6': CPU = 171.319 ms, elapsed = 261.729 ms, util. = 65.5%.
Time accumulated: CPU = 2.12812 s, elapsed = 4.98543 s.
Peak resident memory used = 138 Mbytes.


*************************
Alter Group `altergroup6'
*************************
Time for altergroup6: CPU = 6.594 ms, elapsed = 6.98996 ms.
Time accumulated: CPU = 2.13481 s, elapsed = 4.99361 s.
Peak resident memory used = 138 Mbytes.


*****************************************************
Transient Analysis `transient7': time = (0 s -> 2 ns)
*****************************************************

Notice from spectre during IC analysis `timeSweep_cloned_6', during transient analysis `transient7'.
    GminDC = 1 pS is large enough to noticeably affect the DC solution.
        dV(nor6.net16) = 10.4916 mV
        Use the `gmin_check' option to eliminate or expand this report.

DC simulation time: CPU = 4.339 ms, elapsed = 6.15406 ms.

Notice from spectre during transient analysis `transient7'.
    No outputs were found. Loosening output filter criterion to `allpub'.


Opening the PSFXL file ./nor_tt.raw/transient7.tran.tran ...
Important parameter values:
    start = 0 s
    outputstart = 0 s
    stop = 2 ns
    step = 100 fs
    maxstep = 40 ps
    ic = all
    useprevic = no
    skipdc = no
    reltol = 1e-03
    abstol(V) = 1 uV
    abstol(I) = 1 pA
    temp = 0 C
    tnom = 27 C
    tempeffects = all
    errpreset = moderate
    method = traponly
    lteratio = 3.5
    relref = sigglobal
    cmin = 0 F
    gmin = 1 pS


Output and IC/nodeset summary:
                 probe  2       
                 save   3       (current)
                 save   165     (voltage)

......9......8......7......6......5.....

Notice from spectre at time = 1.155 ns during transient analysis `transient7'.
    Found trapezoidal ringing on node nor10.3:A.

......9......8......7......6......5......4......3......2......1......0
Number of accepted tran steps =             254

Notice from spectre during transient analysis `transient7'.
    Trapezoidal ringing is detected during tran analysis.
        Please use method=trap for better results and performance.


Maximum value achieved for any signal of each quantity: 
V: V(nor10.net16) = 1.045 V
I: I(VGND:p) = 62.23 uA
If your circuit contains signals of the same quantity that are vastly different in size (such as high voltage circuitry combined with low voltage control circuitry), you should consider specifying global option `bin_relref=yes'.

~~~~~~~~~~~~~~~~~~~~~~~~~~~~~~~~~
Post-Transient Simulation Summary
~~~~~~~~~~~~~~~~~~~~~~~~~~~~~~~~~
   -   To further speed up simulation, consider
          add ++aps on command line
~~~~~~~~~~~~~~~~~~~~~~~~~~~~~~~~~


During simulation, the CPU load for active processors is :
         0 (8.6 %)       1 (15.7 %)      2 (100.0 %)     3 (6.5 %)
         4 (40.3 %)      5 (16.2 %)      6 (22.5 %)      7 (5.9 %)
         8 (12.6 %)      9 (5.6 %)      10 (32.3 %)     11 (21.8 %)
        Total: 288.0%
Initial condition solution time: CPU = 4.385 ms, elapsed = 6.56199 ms.
Intrinsic tran analysis time:    CPU = 200.464 ms, elapsed = 258.058 ms.
Opening mt file:  /CASNFSHOME2/home/sstatthoudakis/Documents/spectre/Gates/NOR2/nor_validate/corners/corner_pin2/wire_load/nor_tt.mt6
Total time required for tran analysis `transient7': CPU = 207.821 ms, elapsed = 281.829 ms, util. = 73.7%.
Time accumulated: CPU = 2.34828 s, elapsed = 5.31438 s.
Peak resident memory used = 138 Mbytes.


*************************
Alter Group `altergroup7'
*************************
Time for altergroup7: CPU = 7.647 ms, elapsed = 8.08501 ms.
Time accumulated: CPU = 2.35605 s, elapsed = 5.324 s.
Peak resident memory used = 138 Mbytes.


*****************************************************
Transient Analysis `transient8': time = (0 s -> 2 ns)
*****************************************************

Notice from spectre during IC analysis `timeSweep_cloned_7', during transient analysis `transient8'.
    GminDC = 1 pS is large enough to noticeably affect the DC solution.
        dV(nor2.net16) = 1.50737 mV
        Use the `gmin_check' option to eliminate or expand this report.

DC simulation time: CPU = 4.28 ms, elapsed = 5.656 ms.

Notice from spectre during transient analysis `transient8'.
    No outputs were found. Loosening output filter criterion to `allpub'.


Opening the PSFXL file ./nor_tt.raw/transient8.tran.tran ...
Important parameter values:
    start = 0 s
    outputstart = 0 s
    stop = 2 ns
    step = 100 fs
    maxstep = 40 ps
    ic = all
    useprevic = no
    skipdc = no
    reltol = 1e-03
    abstol(V) = 1 uV
    abstol(I) = 1 pA
    temp = 50 C
    tnom = 27 C
    tempeffects = all
    errpreset = moderate
    method = traponly
    lteratio = 3.5
    relref = sigglobal
    cmin = 0 F
    gmin = 1 pS


Output and IC/nodeset summary:
                 probe  2       
                 save   3       (current)
                 save   165     (voltage)

......9......8......7......6......5..

Notice from spectre at time = 1.09951 ns during transient analysis `transient8'.
    Found trapezoidal ringing on node VGND:p.

......9......8......7......6......5...

Notice from spectre at time = 1.12726 ns during transient analysis `transient8'.
    Found trapezoidal ringing on node VGND:p.

......9......8......7......6......5....

Notice from spectre at time = 1.155 ns during transient analysis `transient8'.
    Found trapezoidal ringing on node VGND:p.

......9......8......7......6......5......4......3......2......1......0
Number of accepted tran steps =             243

Notice from spectre during transient analysis `transient8'.
    Trapezoidal ringing is detected during tran analysis.
        Please use method=trap for better results and performance.


Maximum value achieved for any signal of each quantity: 
V: V(nor10.net16) = 1.035 V
I: I(VGND:p) = 59.22 uA
If your circuit contains signals of the same quantity that are vastly different in size (such as high voltage circuitry combined with low voltage control circuitry), you should consider specifying global option `bin_relref=yes'.

~~~~~~~~~~~~~~~~~~~~~~~~~~~~~~~~~
Post-Transient Simulation Summary
~~~~~~~~~~~~~~~~~~~~~~~~~~~~~~~~~
   -   To further speed up simulation, consider
          add ++aps on command line
~~~~~~~~~~~~~~~~~~~~~~~~~~~~~~~~~


During simulation, the CPU load for active processors is :
         0 (8.1 %)       1 (14.9 %)      2 (100.0 %)     3 (6.1 %)
         4 (41.7 %)      5 (15.6 %)      6 (21.2 %)      7 (5.7 %)
         8 (18.0 %)      9 (5.2 %)      10 (30.3 %)     11 (20.6 %)
        Total: 287.3%
Initial condition solution time: CPU = 4.332 ms, elapsed = 6.01506 ms.
Intrinsic tran analysis time:    CPU = 190.208 ms, elapsed = 279.954 ms.
Opening mt file:  /CASNFSHOME2/home/sstatthoudakis/Documents/spectre/Gates/NOR2/nor_validate/corners/corner_pin2/wire_load/nor_tt.mt7
Total time required for tran analysis `transient8': CPU = 197.794 ms, elapsed = 301.849 ms, util. = 65.5%.
Time accumulated: CPU = 2.55901 s, elapsed = 5.66047 s.
Peak resident memory used = 138 Mbytes.


*************************
Alter Group `altergroup8'
*************************
Time for altergroup8: CPU = 6.397 ms, elapsed = 6.75011 ms.
Time accumulated: CPU = 2.56551 s, elapsed = 5.66856 s.
Peak resident memory used = 138 Mbytes.


*****************************************************
Transient Analysis `transient9': time = (0 s -> 2 ns)
*****************************************************
DC simulation time: CPU = 3.417 ms, elapsed = 3.41797 ms.

Notice from spectre during transient analysis `transient9'.
    No outputs were found. Loosening output filter criterion to `allpub'.


Opening the PSFXL file ./nor_tt.raw/transient9.tran.tran ...
Important parameter values:
    start = 0 s
    outputstart = 0 s
    stop = 2 ns
    step = 100 fs
    maxstep = 40 ps
    ic = all
    useprevic = no
    skipdc = no
    reltol = 1e-03
    abstol(V) = 1 uV
    abstol(I) = 1 pA
    temp = 125 C
    tnom = 27 C
    tempeffects = all
    errpreset = moderate
    method = traponly
    lteratio = 3.5
    relref = sigglobal
    cmin = 0 F
    gmin = 1 pS


Output and IC/nodeset summary:
                 probe  2       
                 save   3       (current)
                 save   165     (voltage)

......9......8......7......6......5....

Notice from spectre at time = 1.155 ns during transient analysis `transient9'.
    Found trapezoidal ringing on node VVDD:p.

......9......8......7......6......5......4......3......2......1......0
Number of accepted tran steps =             236

Notice from spectre during transient analysis `transient9'.
    Trapezoidal ringing is detected during tran analysis.
        Please use method=trap for better results and performance.


Maximum value achieved for any signal of each quantity: 
V: V(nor10.2:Q) = 1.024 V
I: I(VGND:p) = 56.81 uA
If your circuit contains signals of the same quantity that are vastly different in size (such as high voltage circuitry combined with low voltage control circuitry), you should consider specifying global option `bin_relref=yes'.

~~~~~~~~~~~~~~~~~~~~~~~~~~~~~~~~~
Post-Transient Simulation Summary
~~~~~~~~~~~~~~~~~~~~~~~~~~~~~~~~~
   -   To further speed up simulation, consider
          add ++aps on command line
~~~~~~~~~~~~~~~~~~~~~~~~~~~~~~~~~


During simulation, the CPU load for active processors is :
         0 (7.7 %)       1 (14.1 %)      2 (100.0 %)     3 (5.8 %)
         4 (42.8 %)      5 (15.1 %)      6 (20.2 %)      7 (5.4 %)
         8 (20.0 %)      9 (5.0 %)      10 (30.8 %)     11 (19.6 %)
        Total: 286.5%
Initial condition solution time: CPU = 3.483 ms, elapsed = 3.86882 ms.
Intrinsic tran analysis time:    CPU = 165.429 ms, elapsed = 228.922 ms.
Opening mt file:  /CASNFSHOME2/home/sstatthoudakis/Documents/spectre/Gates/NOR2/nor_validate/corners/corner_pin2/wire_load/nor_tt.mt8
Total time required for tran analysis `transient9': CPU = 171.91 ms, elapsed = 248.124 ms, util. = 69.3%.
Time accumulated: CPU = 2.74246 s, elapsed = 5.9503 s.
Peak resident memory used = 138 Mbytes.


*************************
Alter Group `altergroup9'
*************************
Time for altergroup9: CPU = 7.691 ms, elapsed = 8.02898 ms.
Time accumulated: CPU = 2.75027 s, elapsed = 5.95953 s.
Peak resident memory used = 138 Mbytes.


******************************************************
Transient Analysis `transient10': time = (0 s -> 2 ns)
******************************************************

Notice from spectre during IC analysis `timeSweep_cloned_9', during transient analysis `transient10'.
    GminDC = 1 pS is large enough to noticeably affect the DC solution.
        dV(nor10.net16) = 10.4573 mV
        Use the `gmin_check' option to eliminate or expand this report.

DC simulation time: CPU = 5.89 ms, elapsed = 7.15899 ms.

Notice from spectre during transient analysis `transient10'.
    No outputs were found. Loosening output filter criterion to `allpub'.


Opening the PSFXL file ./nor_tt.raw/transient10.tran.tran ...
Important parameter values:
    start = 0 s
    outputstart = 0 s
    stop = 2 ns
    step = 100 fs
    maxstep = 40 ps
    ic = all
    useprevic = no
    skipdc = no
    reltol = 1e-03
    abstol(V) = 1 uV
    abstol(I) = 1 pA
    temp = 0 C
    tnom = 27 C
    tempeffects = all
    errpreset = moderate
    method = traponly
    lteratio = 3.5
    relref = sigglobal
    cmin = 0 F
    gmin = 1 pS


Output and IC/nodeset summary:
                 probe  2       
                 save   3       (current)
                 save   165     (voltage)

......9......8......7......6......5...

Notice from spectre at time = 1.12088 ns during transient analysis `transient10'.
    Found trapezoidal ringing on node VGND:p.

......9......8......7......6......5....

Notice from spectre at time = 1.155 ns during transient analysis `transient10'.
    Found trapezoidal ringing on node VVDD:p.

......9......8......7......6......5......4......3......2......1......0
Number of accepted tran steps =             252

Notice from spectre during transient analysis `transient10'.
    Trapezoidal ringing is detected during tran analysis.
        Please use method=trap for better results and performance.


Maximum value achieved for any signal of each quantity: 
V: V(nor10.net16) = 1.054 V
I: I(VGND:p) = 63.68 uA
If your circuit contains signals of the same quantity that are vastly different in size (such as high voltage circuitry combined with low voltage control circuitry), you should consider specifying global option `bin_relref=yes'.

~~~~~~~~~~~~~~~~~~~~~~~~~~~~~~~~~
Post-Transient Simulation Summary
~~~~~~~~~~~~~~~~~~~~~~~~~~~~~~~~~
   -   To further speed up simulation, consider
          add ++aps on command line
~~~~~~~~~~~~~~~~~~~~~~~~~~~~~~~~~


During simulation, the CPU load for active processors is :
         0 (7.2 %)       1 (13.4 %)      2 (100.0 %)     3 (5.5 %)
         4 (43.8 %)      5 (14.5 %)      6 (19.2 %)      7 (5.2 %)
         8 (18.9 %)      9 (4.9 %)      10 (34.4 %)     11 (18.7 %)
        Total: 285.7%
Initial condition solution time: CPU = 5.939 ms, elapsed = 7.52306 ms.
Intrinsic tran analysis time:    CPU = 181.237 ms, elapsed = 255.734 ms.
Opening mt file:  /CASNFSHOME2/home/sstatthoudakis/Documents/spectre/Gates/NOR2/nor_validate/corners/corner_pin2/wire_load/nor_tt.mt9
Total time required for tran analysis `transient10': CPU = 190.741 ms, elapsed = 280.229 ms, util. = 68.1%.
Time accumulated: CPU = 2.94659 s, elapsed = 6.27502 s.
Peak resident memory used = 138 Mbytes.


**************************
Alter Group `altergroup10'
**************************
Time for altergroup10: CPU = 6.403 ms, elapsed = 6.71291 ms.
Time accumulated: CPU = 2.9531 s, elapsed = 6.2828 s.
Peak resident memory used = 138 Mbytes.


******************************************************
Transient Analysis `transient11': time = (0 s -> 2 ns)
******************************************************

Notice from spectre during IC analysis `timeSweep_cloned_10', during transient analysis `transient11'.
    GminDC = 1 pS is large enough to noticeably affect the DC solution.
        dV(nor2.net16) = 1.50817 mV
        Use the `gmin_check' option to eliminate or expand this report.

DC simulation time: CPU = 3.332 ms, elapsed = 4.44102 ms.

Notice from spectre during transient analysis `transient11'.
    No outputs were found. Loosening output filter criterion to `allpub'.


Opening the PSFXL file ./nor_tt.raw/transient11.tran.tran ...
Important parameter values:
    start = 0 s
    outputstart = 0 s
    stop = 2 ns
    step = 100 fs
    maxstep = 40 ps
    ic = all
    useprevic = no
    skipdc = no
    reltol = 1e-03
    abstol(V) = 1 uV
    abstol(I) = 1 pA
    temp = 50 C
    tnom = 27 C
    tempeffects = all
    errpreset = moderate
    method = traponly
    lteratio = 3.5
    relref = sigglobal
    cmin = 0 F
    gmin = 1 pS


Output and IC/nodeset summary:
                 probe  2       
                 save   3       (current)
                 save   165     (voltage)

......9......8......7......6......5.

Notice from spectre at time = 1.07939 ns during transient analysis `transient11'.
    Found trapezoidal ringing on node VVDD:p.

......9......8......7......6......5...

Notice from spectre at time = 1.11939 ns during transient analysis `transient11'.
    Found trapezoidal ringing on node VVDD:p.

......9......8......7......6......5....

Notice from spectre at time = 1.155 ns during transient analysis `transient11'.
    Found trapezoidal ringing on node VVDD:p.

......9......8......7......6......5......4......3......2......1......0
Number of accepted tran steps =             246

Notice from spectre during transient analysis `transient11'.
    Trapezoidal ringing is detected during tran analysis.
        Please use method=trap for better results and performance.


Maximum value achieved for any signal of each quantity: 
V: V(nor10.net16) = 1.046 V
I: I(VGND:p) = 60.27 uA
If your circuit contains signals of the same quantity that are vastly different in size (such as high voltage circuitry combined with low voltage control circuitry), you should consider specifying global option `bin_relref=yes'.

~~~~~~~~~~~~~~~~~~~~~~~~~~~~~~~~~
Post-Transient Simulation Summary
~~~~~~~~~~~~~~~~~~~~~~~~~~~~~~~~~
   -   To further speed up simulation, consider
          add ++aps on command line
~~~~~~~~~~~~~~~~~~~~~~~~~~~~~~~~~


During simulation, the CPU load for active processors is :
         0 (6.9 %)       1 (12.7 %)      2 (100.0 %)     3 (5.5 %)
         4 (44.5 %)      5 (14.8 %)      6 (18.2 %)      7 (5.3 %)
         8 (17.9 %)      9 (4.8 %)      10 (37.8 %)     11 (17.8 %)
        Total: 286.3%
Initial condition solution time: CPU = 3.377 ms, elapsed = 4.82893 ms.
Intrinsic tran analysis time:    CPU = 180.342 ms, elapsed = 271.349 ms.
Opening mt file:  /CASNFSHOME2/home/sstatthoudakis/Documents/spectre/Gates/NOR2/nor_validate/corners/corner_pin2/wire_load/nor_tt.mt10
Total time required for tran analysis `transient11': CPU = 187.554 ms, elapsed = 293.768 ms, util. = 63.8%.
Time accumulated: CPU = 3.14555 s, elapsed = 6.61072 s.
Peak resident memory used = 138 Mbytes.


**************************
Alter Group `altergroup11'
**************************
Time for altergroup11: CPU = 8.96 ms, elapsed = 9.28998 ms.
Time accumulated: CPU = 3.15462 s, elapsed = 6.62102 s.
Peak resident memory used = 138 Mbytes.


******************************************************
Transient Analysis `transient12': time = (0 s -> 2 ns)
******************************************************
DC simulation time: CPU = 4.319 ms, elapsed = 4.31991 ms.

Notice from spectre during transient analysis `transient12'.
    No outputs were found. Loosening output filter criterion to `allpub'.


Opening the PSFXL file ./nor_tt.raw/transient12.tran.tran ...
Important parameter values:
    start = 0 s
    outputstart = 0 s
    stop = 2 ns
    step = 100 fs
    maxstep = 40 ps
    ic = all
    useprevic = no
    skipdc = no
    reltol = 1e-03
    abstol(V) = 1 uV
    abstol(I) = 1 pA
    temp = 125 C
    tnom = 27 C
    tempeffects = all
    errpreset = moderate
    method = traponly
    lteratio = 3.5
    relref = sigglobal
    cmin = 0 F
    gmin = 1 pS


Output and IC/nodeset summary:
                 probe  2       
                 save   3       (current)
                 save   165     (voltage)

......9......8....

Notice from spectre at time = 514.105 ps during transient analysis `transient12'.
    Found trapezoidal ringing on node nor6.3:A.

......9......8......7......6......5...

Notice from spectre at time = 1.11536 ns during transient analysis `transient12'.
    Found trapezoidal ringing on node VVDD:p.

......9......8......7......6......5....

Notice from spectre at time = 1.155 ns during transient analysis `transient12'.
    Found trapezoidal ringing on node VVDD:p.

......9......8......7......6......5......4......3......2......1......0
Number of accepted tran steps =             238

Notice from spectre during transient analysis `transient12'.
    Trapezoidal ringing is detected during tran analysis.
        Please use method=trap for better results and performance.


Maximum value achieved for any signal of each quantity: 
V: V(nor10.net16) = 1.034 V
I: I(VGND:p) = 57.82 uA
If your circuit contains signals of the same quantity that are vastly different in size (such as high voltage circuitry combined with low voltage control circuitry), you should consider specifying global option `bin_relref=yes'.

~~~~~~~~~~~~~~~~~~~~~~~~~~~~~~~~~
Post-Transient Simulation Summary
~~~~~~~~~~~~~~~~~~~~~~~~~~~~~~~~~
   -   To further speed up simulation, consider
          add ++aps on command line
~~~~~~~~~~~~~~~~~~~~~~~~~~~~~~~~~


During simulation, the CPU load for active processors is :
         0 (6.7 %)       1 (12.2 %)      2 (100.0 %)     3 (5.3 %)
         4 (45.6 %)      5 (14.2 %)      6 (17.4 %)      7 (5.1 %)
         8 (17.3 %)      9 (4.5 %)      10 (40.6 %)     11 (17.4 %)
        Total: 286.2%
Initial condition solution time: CPU = 4.395 ms, elapsed = 5.01895 ms.
Intrinsic tran analysis time:    CPU = 177.679 ms, elapsed = 247.468 ms.
Opening mt file:  /CASNFSHOME2/home/sstatthoudakis/Documents/spectre/Gates/NOR2/nor_validate/corners/corner_pin2/wire_load/nor_tt.mt11
Total time required for tran analysis `transient12': CPU = 185.439 ms, elapsed = 267.41 ms, util. = 69.3%.
Time accumulated: CPU = 3.3451 s, elapsed = 6.92297 s.
Peak resident memory used = 138 Mbytes.


**************************
Alter Group `altergroup12'
**************************
Time for altergroup12: CPU = 6.48 ms, elapsed = 6.79398 ms.
Time accumulated: CPU = 3.3517 s, elapsed = 6.93079 s.
Peak resident memory used = 138 Mbytes.


******************************************************
Transient Analysis `transient13': time = (0 s -> 2 ns)
******************************************************

Notice from spectre during IC analysis `timeSweep_cloned_12', during transient analysis `transient13'.
    GminDC = 1 pS is large enough to noticeably affect the DC solution.
        dV(nor4.net16) = 10.4886 mV
        Use the `gmin_check' option to eliminate or expand this report.

DC simulation time: CPU = 3.64 ms, elapsed = 4.99201 ms.

Notice from spectre during transient analysis `transient13'.
    No outputs were found. Loosening output filter criterion to `allpub'.


Opening the PSFXL file ./nor_tt.raw/transient13.tran.tran ...
Important parameter values:
    start = 0 s
    outputstart = 0 s
    stop = 2 ns
    step = 100 fs
    maxstep = 40 ps
    ic = all
    useprevic = no
    skipdc = no
    reltol = 1e-03
    abstol(V) = 1 uV
    abstol(I) = 1 pA
    temp = 0 C
    tnom = 27 C
    tempeffects = all
    errpreset = moderate
    method = traponly
    lteratio = 3.5
    relref = sigglobal
    cmin = 0 F
    gmin = 1 pS


Output and IC/nodeset summary:
                 probe  2       
                 save   3       (current)
                 save   165     (voltage)

......9......8......7......6......5..

Notice from spectre at time = 1.09951 ns during transient analysis `transient13'.
    Found trapezoidal ringing on node VVDD:p.

......9......8......7......6......5...

Notice from spectre at time = 1.12725 ns during transient analysis `transient13'.
    Found trapezoidal ringing on node VGND:p.

......9......8......7......6......5....

Notice from spectre at time = 1.155 ns during transient analysis `transient13'.
    Found trapezoidal ringing on node VVDD:p.

......9......8......7......6......5......4......3......2......1......0
Number of accepted tran steps =             267

Notice from spectre during transient analysis `transient13'.
    Trapezoidal ringing is detected during tran analysis.
        Please use method=trap for better results and performance.


Maximum value achieved for any signal of each quantity: 
V: V(nor10.net16) = 1.065 V
I: I(VGND:p) = 64.87 uA
If your circuit contains signals of the same quantity that are vastly different in size (such as high voltage circuitry combined with low voltage control circuitry), you should consider specifying global option `bin_relref=yes'.

~~~~~~~~~~~~~~~~~~~~~~~~~~~~~~~~~
Post-Transient Simulation Summary
~~~~~~~~~~~~~~~~~~~~~~~~~~~~~~~~~
   -   To further speed up simulation, consider
          add ++aps on command line
~~~~~~~~~~~~~~~~~~~~~~~~~~~~~~~~~


During simulation, the CPU load for active processors is :
         0 (6.4 %)       1 (11.6 %)      2 (100.0 %)     3 (5.0 %)
         4 (46.5 %)      5 (13.6 %)      6 (16.6 %)      7 (4.9 %)
         8 (16.5 %)      9 (4.5 %)      10 (43.5 %)     11 (16.7 %)
        Total: 285.6%
Initial condition solution time: CPU = 3.695 ms, elapsed = 5.37586 ms.
Intrinsic tran analysis time:    CPU = 189.455 ms, elapsed = 272.637 ms.
Opening mt file:  /CASNFSHOME2/home/sstatthoudakis/Documents/spectre/Gates/NOR2/nor_validate/corners/corner_pin2/wire_load/nor_tt.mt12
Total time required for tran analysis `transient13': CPU = 196.064 ms, elapsed = 294.898 ms, util. = 66.5%.
Time accumulated: CPU = 3.55287 s, elapsed = 7.2611 s.
Peak resident memory used = 140 Mbytes.


**************************
Alter Group `altergroup13'
**************************
Time for altergroup13: CPU = 6.45 ms, elapsed = 6.76703 ms.
Time accumulated: CPU = 3.55942 s, elapsed = 7.26892 s.
Peak resident memory used = 140 Mbytes.


******************************************************
Transient Analysis `transient14': time = (0 s -> 2 ns)
******************************************************

Notice from spectre during IC analysis `timeSweep_cloned_13', during transient analysis `transient14'.
    GminDC = 1 pS is large enough to noticeably affect the DC solution.
        dV(nor8.net16) = 1.50873 mV
        Use the `gmin_check' option to eliminate or expand this report.

DC simulation time: CPU = 3.43 ms, elapsed = 4.78292 ms.

Notice from spectre during transient analysis `transient14'.
    No outputs were found. Loosening output filter criterion to `allpub'.


Opening the PSFXL file ./nor_tt.raw/transient14.tran.tran ...
Important parameter values:
    start = 0 s
    outputstart = 0 s
    stop = 2 ns
    step = 100 fs
    maxstep = 40 ps
    ic = all
    useprevic = no
    skipdc = no
    reltol = 1e-03
    abstol(V) = 1 uV
    abstol(I) = 1 pA
    temp = 50 C
    tnom = 27 C
    tempeffects = all
    errpreset = moderate
    method = traponly
    lteratio = 3.5
    relref = sigglobal
    cmin = 0 F
    gmin = 1 pS


Output and IC/nodeset summary:
                 probe  2       
                 save   3       (current)
                 save   165     (voltage)

......9......8......7......6......5....

Notice from spectre at time = 1.155 ns during transient analysis `transient14'.
    Found trapezoidal ringing on node nor6.3:A.

......9......8......7......6......5......4......3......2......1......0
Number of accepted tran steps =             249

Notice from spectre during transient analysis `transient14'.
    Trapezoidal ringing is detected during tran analysis.
        Please use method=trap for better results and performance.


Maximum value achieved for any signal of each quantity: 
V: V(nor10.net16) = 1.055 V
I: I(VGND:p) = 61.99 uA
If your circuit contains signals of the same quantity that are vastly different in size (such as high voltage circuitry combined with low voltage control circuitry), you should consider specifying global option `bin_relref=yes'.

~~~~~~~~~~~~~~~~~~~~~~~~~~~~~~~~~
Post-Transient Simulation Summary
~~~~~~~~~~~~~~~~~~~~~~~~~~~~~~~~~
   -   To further speed up simulation, consider
          add ++aps on command line
~~~~~~~~~~~~~~~~~~~~~~~~~~~~~~~~~


During simulation, the CPU load for active processors is :
         0 (6.1 %)       1 (11.1 %)      2 (100.0 %)     3 (5.1 %)
         4 (47.2 %)      5 (13.1 %)      6 (15.9 %)      7 (4.7 %)
         8 (15.8 %)      9 (4.4 %)      10 (45.8 %)     11 (16.1 %)
        Total: 285.3%
Initial condition solution time: CPU = 3.479 ms, elapsed = 5.11003 ms.
Intrinsic tran analysis time:    CPU = 178.574 ms, elapsed = 241.535 ms.
Opening mt file:  /CASNFSHOME2/home/sstatthoudakis/Documents/spectre/Gates/NOR2/nor_validate/corners/corner_pin2/wire_load/nor_tt.mt13
Total time required for tran analysis `transient14': CPU = 184.954 ms, elapsed = 263.331 ms, util. = 70.2%.
Time accumulated: CPU = 3.74937 s, elapsed = 7.57147 s.
Peak resident memory used = 140 Mbytes.


**************************
Alter Group `altergroup14'
**************************
Time for altergroup14: CPU = 6.507 ms, elapsed = 6.85596 ms.
Time accumulated: CPU = 3.75599 s, elapsed = 7.57948 s.
Peak resident memory used = 140 Mbytes.


******************************************************
Transient Analysis `transient15': time = (0 s -> 2 ns)
******************************************************
DC simulation time: CPU = 3.56 ms, elapsed = 3.56102 ms.

Notice from spectre during transient analysis `transient15'.
    No outputs were found. Loosening output filter criterion to `allpub'.


Opening the PSFXL file ./nor_tt.raw/transient15.tran.tran ...
Important parameter values:
    start = 0 s
    outputstart = 0 s
    stop = 2 ns
    step = 100 fs
    maxstep = 40 ps
    ic = all
    useprevic = no
    skipdc = no
    reltol = 1e-03
    abstol(V) = 1 uV
    abstol(I) = 1 pA
    temp = 125 C
    tnom = 27 C
    tempeffects = all
    errpreset = moderate
    method = traponly
    lteratio = 3.5
    relref = sigglobal
    cmin = 0 F
    gmin = 1 pS


Output and IC/nodeset summary:
                 probe  2       
                 save   3       (current)
                 save   165     (voltage)

......9......8......7......6......5......4......3......2......1......0
Number of accepted tran steps =             237

Maximum value achieved for any signal of each quantity: 
V: V(nor10.net16) = 1.045 V
I: I(VGND:p) = 59.07 uA
If your circuit contains signals of the same quantity that are vastly different in size (such as high voltage circuitry combined with low voltage control circuitry), you should consider specifying global option `bin_relref=yes'.

~~~~~~~~~~~~~~~~~~~~~~~~~~~~~~~~~
Post-Transient Simulation Summary
~~~~~~~~~~~~~~~~~~~~~~~~~~~~~~~~~
   -   To further speed up simulation, consider
          add ++aps on command line
~~~~~~~~~~~~~~~~~~~~~~~~~~~~~~~~~


During simulation, the CPU load for active processors is :
         0 (5.9 %)       1 (10.7 %)      2 (100.0 %)     3 (4.9 %)
         4 (48.0 %)      5 (12.6 %)      6 (15.3 %)      7 (4.6 %)
         8 (15.2 %)      9 (4.3 %)      10 (47.7 %)     11 (15.6 %)
        Total: 284.9%
Initial condition solution time: CPU = 3.637 ms, elapsed = 4.0369 ms.
Intrinsic tran analysis time:    CPU = 163.722 ms, elapsed = 213.579 ms.
Opening mt file:  /CASNFSHOME2/home/sstatthoudakis/Documents/spectre/Gates/NOR2/nor_validate/corners/corner_pin2/wire_load/nor_tt.mt14
Total time required for tran analysis `transient15': CPU = 170.39 ms, elapsed = 234.353 ms, util. = 72.7%.
Time accumulated: CPU = 3.93115 s, elapsed = 7.84744 s.
Peak resident memory used = 140 Mbytes.


**************************
Alter Group `altergroup15'
**************************
Time for altergroup15: CPU = 6.421 ms, elapsed = 6.68311 ms.
Time accumulated: CPU = 3.93769 s, elapsed = 7.85514 s.
Peak resident memory used = 140 Mbytes.


******************************************************
Transient Analysis `transient16': time = (0 s -> 2 ns)
******************************************************

Notice from spectre during IC analysis `timeSweep_cloned_15', during transient analysis `transient16'.
    GminDC = 1 pS is large enough to noticeably affect the DC solution.
        dV(nor10.net16) = 10.4847 mV
        Use the `gmin_check' option to eliminate or expand this report.

DC simulation time: CPU = 4.691 ms, elapsed = 5.88512 ms.

Notice from spectre during transient analysis `transient16'.
    No outputs were found. Loosening output filter criterion to `allpub'.


Opening the PSFXL file ./nor_tt.raw/transient16.tran.tran ...
Important parameter values:
    start = 0 s
    outputstart = 0 s
    stop = 2 ns
    step = 100 fs
    maxstep = 40 ps
    ic = all
    useprevic = no
    skipdc = no
    reltol = 1e-03
    abstol(V) = 1 uV
    abstol(I) = 1 pA
    temp = 0 C
    tnom = 27 C
    tempeffects = all
    errpreset = moderate
    method = traponly
    lteratio = 3.5
    relref = sigglobal
    cmin = 0 F
    gmin = 1 pS


Output and IC/nodeset summary:
                 probe  2       
                 save   3       (current)
                 save   165     (voltage)

......9......8......7......6......5......4......3......2......1......0
Number of accepted tran steps =             261

Maximum value achieved for any signal of each quantity: 
V: V(nor10.net16) = 1.072 V
I: I(VGND:p) = 65.81 uA
If your circuit contains signals of the same quantity that are vastly different in size (such as high voltage circuitry combined with low voltage control circuitry), you should consider specifying global option `bin_relref=yes'.

~~~~~~~~~~~~~~~~~~~~~~~~~~~~~~~~~
Post-Transient Simulation Summary
~~~~~~~~~~~~~~~~~~~~~~~~~~~~~~~~~
   -   To further speed up simulation, consider
          add ++aps on command line
~~~~~~~~~~~~~~~~~~~~~~~~~~~~~~~~~


During simulation, the CPU load for active processors is :
         0 (5.7 %)       1 (10.4 %)      2 (100.0 %)     3 (5.3 %)
         4 (48.9 %)      5 (12.2 %)      6 (14.7 %)      7 (4.4 %)
         8 (14.7 %)      9 (4.6 %)      10 (49.6 %)     11 (15.0 %)
        Total: 285.7%
Initial condition solution time: CPU = 4.735 ms, elapsed = 6.16693 ms.
Intrinsic tran analysis time:    CPU = 188.764 ms, elapsed = 234.933 ms.
Opening mt file:  /CASNFSHOME2/home/sstatthoudakis/Documents/spectre/Gates/NOR2/nor_validate/corners/corner_pin2/wire_load/nor_tt.mt15
Total time required for tran analysis `transient16': CPU = 196.517 ms, elapsed = 256.203 ms, util. = 76.7%.
Time accumulated: CPU = 4.14239 s, elapsed = 8.15213 s.
Peak resident memory used = 140 Mbytes.


**************************
Alter Group `altergroup16'
**************************
Time for altergroup16: CPU = 10.991 ms, elapsed = 11.301 ms.
Time accumulated: CPU = 4.15358 s, elapsed = 8.16463 s.
Peak resident memory used = 140 Mbytes.


******************************************************
Transient Analysis `transient17': time = (0 s -> 2 ns)
******************************************************

Notice from spectre during IC analysis `timeSweep_cloned_16', during transient analysis `transient17'.
    GminDC = 1 pS is large enough to noticeably affect the DC solution.
        dV(nor6.net16) = 1.50902 mV
        Use the `gmin_check' option to eliminate or expand this report.

DC simulation time: CPU = 5.593 ms, elapsed = 7.1969 ms.

Notice from spectre during transient analysis `transient17'.
    No outputs were found. Loosening output filter criterion to `allpub'.


Opening the PSFXL file ./nor_tt.raw/transient17.tran.tran ...
Important parameter values:
    start = 0 s
    outputstart = 0 s
    stop = 2 ns
    step = 100 fs
    maxstep = 40 ps
    ic = all
    useprevic = no
    skipdc = no
    reltol = 1e-03
    abstol(V) = 1 uV
    abstol(I) = 1 pA
    temp = 50 C
    tnom = 27 C
    tempeffects = all
    errpreset = moderate
    method = traponly
    lteratio = 3.5
    relref = sigglobal
    cmin = 0 F
    gmin = 1 pS


Output and IC/nodeset summary:
                 probe  2       
                 save   3       (current)
                 save   165     (voltage)

......9......8......7......6......5.

Notice from spectre at time = 1.08225 ns during transient analysis `transient17'.
    Found trapezoidal ringing on node VGND:p.

......9......8......7......6......5...

Notice from spectre at time = 1.12225 ns during transient analysis `transient17'.
    Found trapezoidal ringing on node VVDD:p.

......9......8......7......6......5....

Notice from spectre at time = 1.155 ns during transient analysis `transient17'.
    Found trapezoidal ringing on node VGND:p.

......9......8......7......6......5......4......3......2......1......0
Number of accepted tran steps =             258

Notice from spectre during transient analysis `transient17'.
    Trapezoidal ringing is detected during tran analysis.
        Please use method=trap for better results and performance.


Maximum value achieved for any signal of each quantity: 
V: V(nor10.net16) = 1.065 V
I: I(VGND:p) = 63.49 uA
If your circuit contains signals of the same quantity that are vastly different in size (such as high voltage circuitry combined with low voltage control circuitry), you should consider specifying global option `bin_relref=yes'.

~~~~~~~~~~~~~~~~~~~~~~~~~~~~~~~~~
Post-Transient Simulation Summary
~~~~~~~~~~~~~~~~~~~~~~~~~~~~~~~~~
   -   To further speed up simulation, consider
          add ++aps on command line
~~~~~~~~~~~~~~~~~~~~~~~~~~~~~~~~~


During simulation, the CPU load for active processors is :
         0 (5.5 %)       1 (10.1 %)      2 (100.0 %)     3 (5.4 %)
         4 (49.6 %)      5 (12.1 %)      6 (14.3 %)      7 (4.3 %)
         8 (14.1 %)      9 (4.7 %)      10 (51.7 %)     11 (14.4 %)
        Total: 286.0%
Initial condition solution time: CPU = 5.677 ms, elapsed = 7.66993 ms.
Intrinsic tran analysis time:    CPU = 185.202 ms, elapsed = 255.02 ms.
Opening mt file:  /CASNFSHOME2/home/sstatthoudakis/Documents/spectre/Gates/NOR2/nor_validate/corners/corner_pin2/wire_load/nor_tt.mt16
Total time required for tran analysis `transient17': CPU = 194.379 ms, elapsed = 277.625 ms, util. = 70%.
Time accumulated: CPU = 4.35312 s, elapsed = 8.47713 s.
Peak resident memory used = 140 Mbytes.


**************************
Alter Group `altergroup17'
**************************
Time for altergroup17: CPU = 6.409 ms, elapsed = 6.68597 ms.
Time accumulated: CPU = 4.35964 s, elapsed = 8.48512 s.
Peak resident memory used = 140 Mbytes.


******************************************************
Transient Analysis `transient18': time = (0 s -> 2 ns)
******************************************************
DC simulation time: CPU = 3.453 ms, elapsed = 3.45397 ms.

Notice from spectre during transient analysis `transient18'.
    No outputs were found. Loosening output filter criterion to `allpub'.


Opening the PSFXL file ./nor_tt.raw/transient18.tran.tran ...
Important parameter values:
    start = 0 s
    outputstart = 0 s
    stop = 2 ns
    step = 100 fs
    maxstep = 40 ps
    ic = all
    useprevic = no
    skipdc = no
    reltol = 1e-03
    abstol(V) = 1 uV
    abstol(I) = 1 pA
    temp = 125 C
    tnom = 27 C
    tempeffects = all
    errpreset = moderate
    method = traponly
    lteratio = 3.5
    relref = sigglobal
    cmin = 0 F
    gmin = 1 pS


Output and IC/nodeset summary:
                 probe  2       
                 save   3       (current)
                 save   165     (voltage)

......9......8......7......6......5......4......3......2......1......0
Number of accepted tran steps =             244

Maximum value achieved for any signal of each quantity: 
V: V(nor10.net16) = 1.056 V
I: I(VGND:p) = 60.41 uA
If your circuit contains signals of the same quantity that are vastly different in size (such as high voltage circuitry combined with low voltage control circuitry), you should consider specifying global option `bin_relref=yes'.

~~~~~~~~~~~~~~~~~~~~~~~~~~~~~~~~~
Post-Transient Simulation Summary
~~~~~~~~~~~~~~~~~~~~~~~~~~~~~~~~~
   -   To further speed up simulation, consider
          add ++aps on command line
~~~~~~~~~~~~~~~~~~~~~~~~~~~~~~~~~


During simulation, the CPU load for active processors is :
         0 (5.3 %)       1 (9.8 %)       2 (100.0 %)     3 (5.2 %)
         4 (50.2 %)      5 (11.7 %)      6 (13.8 %)      7 (4.1 %)
         8 (13.6 %)      9 (4.6 %)      10 (53.2 %)     11 (13.9 %)
        Total: 285.6%
Initial condition solution time: CPU = 3.514 ms, elapsed = 3.95513 ms.
Intrinsic tran analysis time:    CPU = 166.804 ms, elapsed = 215.12 ms.
Opening mt file:  /CASNFSHOME2/home/sstatthoudakis/Documents/spectre/Gates/NOR2/nor_validate/corners/corner_pin2/wire_load/nor_tt.mt17
Total time required for tran analysis `transient18': CPU = 173.277 ms, elapsed = 235.418 ms, util. = 73.6%.
Time accumulated: CPU = 4.53828 s, elapsed = 8.76299 s.
Peak resident memory used = 140 Mbytes.


**************************
Alter Group `altergroup18'
**************************
Time for altergroup18: CPU = 6.525 ms, elapsed = 6.99306 ms.
Time accumulated: CPU = 4.54493 s, elapsed = 8.77164 s.
Peak resident memory used = 140 Mbytes.


******************************************************
Transient Analysis `transient19': time = (0 s -> 2 ns)
******************************************************

Notice from spectre during IC analysis `timeSweep_cloned_18', during transient analysis `transient19'.
    GminDC = 1 pS is large enough to noticeably affect the DC solution.
        dV(nor10.net16) = 10.4798 mV
        Use the `gmin_check' option to eliminate or expand this report.

DC simulation time: CPU = 4.861 ms, elapsed = 7.24506 ms.

Notice from spectre during transient analysis `transient19'.
    No outputs were found. Loosening output filter criterion to `allpub'.


Opening the PSFXL file ./nor_tt.raw/transient19.tran.tran ...
Important parameter values:
    start = 0 s
    outputstart = 0 s
    stop = 2 ns
    step = 100 fs
    maxstep = 40 ps
    ic = all
    useprevic = no
    skipdc = no
    reltol = 1e-03
    abstol(V) = 1 uV
    abstol(I) = 1 pA
    temp = 0 C
    tnom = 27 C
    tempeffects = all
    errpreset = moderate
    method = traponly
    lteratio = 3.5
    relref = sigglobal
    cmin = 0 F
    gmin = 1 pS


Output and IC/nodeset summary:
                 probe  2       
                 save   3       (current)
                 save   165     (voltage)

......9......8......7......6.....

Notice from spectre at time = 985.491 ps during transient analysis `transient19'.
    Found trapezoidal ringing on node VGND:p.

......9......8......7......6......

Notice from spectre at time = 1.02549 ns during transient analysis `transient19'.
    Found trapezoidal ringing on node VVDD:p.

......9......8......7......6......5.

Notice from spectre at time = 1.06549 ns during transient analysis `transient19'.
    Found trapezoidal ringing on node VGND:p.

......9......8......7......6......5..

Notice from spectre at time = 1.10549 ns during transient analysis `transient19'.
    Found trapezoidal ringing on node VVDD:p.

......9......8......7......6......5....

Notice from spectre at time = 1.13025 ns during transient analysis `transient19'.
    Found trapezoidal ringing on node VGND:p.
        Further occurrences of this notice will be suppressed.

......9......8......7......6......5......4......3......2......1......0
Number of accepted tran steps =             260

Notice from spectre during transient analysis `transient19'.
    Trapezoidal ringing is detected during tran analysis.
        Please use method=trap for better results and performance.


Maximum value achieved for any signal of each quantity: 
V: V(nor10.net16) = 1.081 V
I: I(VGND:p) = 67.33 uA
If your circuit contains signals of the same quantity that are vastly different in size (such as high voltage circuitry combined with low voltage control circuitry), you should consider specifying global option `bin_relref=yes'.

~~~~~~~~~~~~~~~~~~~~~~~~~~~~~~~~~
Post-Transient Simulation Summary
~~~~~~~~~~~~~~~~~~~~~~~~~~~~~~~~~
   -   To further speed up simulation, consider
          add ++aps on command line
~~~~~~~~~~~~~~~~~~~~~~~~~~~~~~~~~


During simulation, the CPU load for active processors is :
         0 (5.1 %)       1 (9.4 %)       2 (100.0 %)     3 (5.0 %)
         4 (50.4 %)      5 (11.2 %)      6 (13.2 %)      7 (4.1 %)
         8 (13.0 %)      9 (4.5 %)      10 (55.3 %)     11 (13.3 %)
        Total: 284.5%
Initial condition solution time: CPU = 4.907 ms, elapsed = 7.7889 ms.
Intrinsic tran analysis time:    CPU = 189.263 ms, elapsed = 326.538 ms.
Opening mt file:  /CASNFSHOME2/home/sstatthoudakis/Documents/spectre/Gates/NOR2/nor_validate/corners/corner_pin2/wire_load/nor_tt.mt18
Total time required for tran analysis `transient19': CPU = 197.251 ms, elapsed = 355.285 ms, util. = 55.5%.
Time accumulated: CPU = 4.74768 s, elapsed = 9.17171 s.
Peak resident memory used = 140 Mbytes.


Notice from spectre.
    1 notice suppressed.


**************************
Alter Group `altergroup19'
**************************
Time for altergroup19: CPU = 6.521 ms, elapsed = 7.55501 ms.
Time accumulated: CPU = 4.75433 s, elapsed = 9.18053 s.
Peak resident memory used = 140 Mbytes.


******************************************************
Transient Analysis `transient20': time = (0 s -> 2 ns)
******************************************************

Notice from spectre during IC analysis `timeSweep_cloned_19', during transient analysis `transient20'.
    GminDC = 1 pS is large enough to noticeably affect the DC solution.
        dV(nor6.net16) = 1.50896 mV
        Use the `gmin_check' option to eliminate or expand this report.

DC simulation time: CPU = 3.29 ms, elapsed = 5.04708 ms.

Notice from spectre during transient analysis `transient20'.
    No outputs were found. Loosening output filter criterion to `allpub'.


Opening the PSFXL file ./nor_tt.raw/transient20.tran.tran ...
Important parameter values:
    start = 0 s
    outputstart = 0 s
    stop = 2 ns
    step = 100 fs
    maxstep = 40 ps
    ic = all
    useprevic = no
    skipdc = no
    reltol = 1e-03
    abstol(V) = 1 uV
    abstol(I) = 1 pA
    temp = 50 C
    tnom = 27 C
    tempeffects = all
    errpreset = moderate
    method = traponly
    lteratio = 3.5
    relref = sigglobal
    cmin = 0 F
    gmin = 1 pS


Output and IC/nodeset summary:
                 probe  2       
                 save   3       (current)
                 save   165     (voltage)

......9......8......7......6....

Notice from spectre at time = 948.252 ps during transient analysis `transient20'.
    Found trapezoidal ringing on node VVDD:p.

......9......8......7......6.....

Notice from spectre at time = 988.252 ps during transient analysis `transient20'.
    Found trapezoidal ringing on node VVDD:p.

......9......8......7......6......5

Notice from spectre at time = 1.02825 ns during transient analysis `transient20'.
    Found trapezoidal ringing on node VVDD:p.

......9......8......7......6......5.

Notice from spectre at time = 1.06825 ns during transient analysis `transient20'.
    Found trapezoidal ringing on node VVDD:p.

......9......8......7......6......5..

Notice from spectre at time = 1.10825 ns during transient analysis `transient20'.
    Found trapezoidal ringing on node VVDD:p.
        Further occurrences of this notice will be suppressed.

......9......8......7......6......5......4......3......2......1......0
Number of accepted tran steps =             249

Notice from spectre during transient analysis `transient20'.
    Trapezoidal ringing is detected during tran analysis.
        Please use method=trap for better results and performance.


Maximum value achieved for any signal of each quantity: 
V: V(nor10.net16) = 1.074 V
I: I(VGND:p) = 64.91 uA
If your circuit contains signals of the same quantity that are vastly different in size (such as high voltage circuitry combined with low voltage control circuitry), you should consider specifying global option `bin_relref=yes'.

~~~~~~~~~~~~~~~~~~~~~~~~~~~~~~~~~
Post-Transient Simulation Summary
~~~~~~~~~~~~~~~~~~~~~~~~~~~~~~~~~
   -   To further speed up simulation, consider
          add ++aps on command line
~~~~~~~~~~~~~~~~~~~~~~~~~~~~~~~~~


During simulation, the CPU load for active processors is :
         0 (4.8 %)       1 (9.0 %)       2 (100.0 %)     3 (4.7 %)
         4 (48.4 %)      5 (13.0 %)      6 (12.6 %)      7 (3.9 %)
         8 (12.4 %)      9 (4.3 %)      10 (57.3 %)     11 (12.7 %)
        Total: 283.3%
Initial condition solution time: CPU = 3.345 ms, elapsed = 5.55897 ms.
Intrinsic tran analysis time:    CPU = 194.997 ms, elapsed = 344.65 ms.
Opening mt file:  /CASNFSHOME2/home/sstatthoudakis/Documents/spectre/Gates/NOR2/nor_validate/corners/corner_pin2/wire_load/nor_tt.mt19
Total time required for tran analysis `transient20': CPU = 201.506 ms, elapsed = 369.999 ms, util. = 54.5%.
Time accumulated: CPU = 4.96135 s, elapsed = 9.59748 s.
Peak resident memory used = 140 Mbytes.


Notice from spectre.
    2 notices suppressed.


**************************
Alter Group `altergroup20'
**************************
Time for altergroup20: CPU = 6.665 ms, elapsed = 7.77483 ms.
Time accumulated: CPU = 4.96813 s, elapsed = 9.60697 s.
Peak resident memory used = 140 Mbytes.


******************************************************
Transient Analysis `transient21': time = (0 s -> 2 ns)
******************************************************
DC simulation time: CPU = 3.666 ms, elapsed = 3.66807 ms.

Notice from spectre during transient analysis `transient21'.
    No outputs were found. Loosening output filter criterion to `allpub'.


Opening the PSFXL file ./nor_tt.raw/transient21.tran.tran ...
Important parameter values:
    start = 0 s
    outputstart = 0 s
    stop = 2 ns
    step = 100 fs
    maxstep = 40 ps
    ic = all
    useprevic = no
    skipdc = no
    reltol = 1e-03
    abstol(V) = 1 uV
    abstol(I) = 1 pA
    temp = 125 C
    tnom = 27 C
    tempeffects = all
    errpreset = moderate
    method = traponly
    lteratio = 3.5
    relref = sigglobal
    cmin = 0 F
    gmin = 1 pS


Output and IC/nodeset summary:
                 probe  2       
[...]
Transient Analysis `transient143': time = (0 s -> 2 ns)
*******************************************************

Notice from spectre during IC analysis `timeSweep_cloned_142', during transient analysis `transient143'.
    GminDC = 1 pS is large enough to noticeably affect the DC solution.
        dV(nor2.net16) = 1.43309 mV
        Use the `gmin_check' option to eliminate or expand this report.

DC simulation time: CPU = 3.94 ms, elapsed = 5.97095 ms.

Notice from spectre during transient analysis `transient143'.
    No outputs were found. Loosening output filter criterion to `allpub'.


Opening the PSFXL file ./nor_tt.raw/transient143.tran.tran ...
Important parameter values:
    start = 0 s
    outputstart = 0 s
    stop = 2 ns
    step = 100 fs
    maxstep = 40 ps
    ic = all
    useprevic = no
    skipdc = no
    reltol = 1e-03
    abstol(V) = 1 uV
    abstol(I) = 1 pA
    temp = 50 C
    tnom = 27 C
    tempeffects = all
    errpreset = moderate
    method = traponly
    lteratio = 3.5
    relref = sigglobal
    cmin = 0 F
    gmin = 1 pS


Output and IC/nodeset summary:
                 probe  2       
                 save   3       (current)
                 save   165     (voltage)

......9....

Notice from spectre at time = 315.477 ps during transient analysis `transient143'.
    Found trapezoidal ringing on node nor6.3:A.

......9......8......7.....

Notice from spectre at time = 785.893 ps during transient analysis `transient143'.
    Found trapezoidal ringing on node VVDD:p.

......9......8......7......6

Notice from spectre at time = 825.893 ps during transient analysis `transient143'.
    Found trapezoidal ringing on node VGND:p.

......9......8......7......6.

Notice from spectre at time = 865.893 ps during transient analysis `transient143'.
    Found trapezoidal ringing on node VVDD:p.

......9......8......7......6..

Notice from spectre at time = 905.893 ps during transient analysis `transient143'.
    Found trapezoidal ringing on node VGND:p.
        Further occurrences of this notice will be suppressed.

......9......8......7......6......5......4......3......2......1......0
Number of accepted tran steps =             253

Notice from spectre during transient analysis `transient143'.
    Trapezoidal ringing is detected during tran analysis.
        Please use method=trap for better results and performance.


Maximum value achieved for any signal of each quantity: 
V: V(nor10.2:Q) = 1.49 V
I: I(VGND:p) = 148.2 uA
If your circuit contains signals of the same quantity that are vastly different in size (such as high voltage circuitry combined with low voltage control circuitry), you should consider specifying global option `bin_relref=yes'.

~~~~~~~~~~~~~~~~~~~~~~~~~~~~~~~~~
Post-Transient Simulation Summary
~~~~~~~~~~~~~~~~~~~~~~~~~~~~~~~~~
   -   To further speed up simulation, consider
          add ++aps on command line
~~~~~~~~~~~~~~~~~~~~~~~~~~~~~~~~~


During simulation, the CPU load for active processors is :
         0 (9.4 %)       1 (25.1 %)      2 (64.9 %)      3 (18.5 %)
         4 (20.0 %)      5 (30.1 %)      6 (50.2 %)      7 (18.9 %)
         8 (5.1 %)       9 (2.5 %)      10 (31.1 %)     11 (3.1 %)
        Total: 278.8%
Initial condition solution time: CPU = 3.999 ms, elapsed = 6.48284 ms.
Intrinsic tran analysis time:    CPU = 187.235 ms, elapsed = 322.423 ms.
Opening mt file:  /CASNFSHOME2/home/sstatthoudakis/Documents/spectre/Gates/NOR2/nor_validate/corners/corner_pin2/wire_load/nor_tt.mt142
Total time required for tran analysis `transient143': CPU = 194.581 ms, elapsed = 348.832 ms, util. = 55.8%.
Time accumulated: CPU = 31.0022 s, elapsed = 65.4348 s (1m  5.4s).
Peak resident memory used = 143 Mbytes.


Notice from spectre.
    8 notices suppressed.


***************************
Alter Group `altergroup143'
***************************
Time for altergroup143: CPU = 7.971 ms, elapsed = 8.73518 ms.
Time accumulated: CPU = 31.0103 s, elapsed = 65.4447 s (1m  5.4s).
Peak resident memory used = 143 Mbytes.


*******************************************************
Transient Analysis `transient144': time = (0 s -> 2 ns)
*******************************************************
DC simulation time: CPU = 3.422 ms, elapsed = 3.42417 ms.

Notice from spectre during transient analysis `transient144'.
    No outputs were found. Loosening output filter criterion to `allpub'.


Opening the PSFXL file ./nor_tt.raw/transient144.tran.tran ...
Important parameter values:
    start = 0 s
    outputstart = 0 s
    stop = 2 ns
    step = 100 fs
    maxstep = 40 ps
    ic = all
    useprevic = no
    skipdc = no
    reltol = 1e-03
    abstol(V) = 1 uV
    abstol(I) = 1 pA
    temp = 125 C
    tnom = 27 C
    tempeffects = all
    errpreset = moderate
    method = traponly
    lteratio = 3.5
    relref = sigglobal
    cmin = 0 F
    gmin = 1 pS


Output and IC/nodeset summary:
                 probe  2       
                 save   3       (current)
                 save   165     (voltage)

......9....

Notice from spectre at time = 321.038 ps during transient analysis `transient144'.
    Found trapezoidal ringing on node nor4.3:A.

......9......8

Notice from spectre at time = 398.398 ps during transient analysis `transient144'.
    Found trapezoidal ringing on node nor8.3:A.

......9......8......7......6..

Notice from spectre at time = 899.503 ps during transient analysis `transient144'.
    Found trapezoidal ringing on node nor10.3:A.

......9......8......7......6...

Notice from spectre at time = 939.503 ps during transient analysis `transient144'.
    Found trapezoidal ringing on node nor10.3:A.

......9......8......7......6.....

Notice from spectre at time = 979.503 ps during transient analysis `transient144'.
    Found trapezoidal ringing on node nor10.3:A.
        Further occurrences of this notice will be suppressed.

......9......8......7......6......5......4......3......2......1......0
Number of accepted tran steps =             248

Notice from spectre during transient analysis `transient144'.
    Trapezoidal ringing is detected during tran analysis.
        Please use method=trap for better results and performance.


Maximum value achieved for any signal of each quantity: 
V: V(nor10.net16) = 1.484 V
I: I(VGND:p) = 135.5 uA
If your circuit contains signals of the same quantity that are vastly different in size (such as high voltage circuitry combined with low voltage control circuitry), you should consider specifying global option `bin_relref=yes'.

~~~~~~~~~~~~~~~~~~~~~~~~~~~~~~~~~
Post-Transient Simulation Summary
~~~~~~~~~~~~~~~~~~~~~~~~~~~~~~~~~
   -   To further speed up simulation, consider
          add ++aps on command line
~~~~~~~~~~~~~~~~~~~~~~~~~~~~~~~~~


During simulation, the CPU load for active processors is :
         0 (9.3 %)       1 (25.1 %)      2 (64.5 %)      3 (18.9 %)
         4 (19.9 %)      5 (30.2 %)      6 (50.5 %)      7 (18.8 %)
         8 (5.1 %)       9 (2.5 %)      10 (30.9 %)     11 (3.1 %)
        Total: 278.8%
Initial condition solution time: CPU = 3.492 ms, elapsed = 3.79205 ms.
Intrinsic tran analysis time:    CPU = 184.713 ms, elapsed = 277.285 ms.
Opening mt file:  /CASNFSHOME2/home/sstatthoudakis/Documents/spectre/Gates/NOR2/nor_validate/corners/corner_pin2/wire_load/nor_tt.mt143
Total time required for tran analysis `transient144': CPU = 191.344 ms, elapsed = 297.283 ms, util. = 64.4%.
Time accumulated: CPU = 31.2068 s, elapsed = 65.7759 s (1m  5.8s).
Peak resident memory used = 143 Mbytes.


Notice from spectre.
    6 notices suppressed.


***************************
Alter Group `altergroup144'
***************************
Time for altergroup144: CPU = 7.801 ms, elapsed = 8.88991 ms.
Time accumulated: CPU = 31.2147 s, elapsed = 65.7861 s (1m  5.8s).
Peak resident memory used = 143 Mbytes.


*******************************************************
Transient Analysis `transient145': time = (0 s -> 2 ns)
*******************************************************

Notice from spectre during IC analysis `timeSweep_cloned_144', during transient analysis `transient145'.
    GminDC = 1 pS is large enough to noticeably affect the DC solution.
        dV(nor10.net16) = 9.80947 mV
        Use the `gmin_check' option to eliminate or expand this report.

DC simulation time: CPU = 4.628 ms, elapsed = 5.87797 ms.

Notice from spectre during transient analysis `transient145'.
    No outputs were found. Loosening output filter criterion to `allpub'.


Opening the PSFXL file ./nor_tt.raw/transient145.tran.tran ...
Important parameter values:
    start = 0 s
    outputstart = 0 s
    stop = 2 ns
    step = 100 fs
    maxstep = 40 ps
    ic = all
    useprevic = no
    skipdc = no
    reltol = 1e-03
    abstol(V) = 1 uV
    abstol(I) = 1 pA
    temp = 0 C
    tnom = 27 C
    tempeffects = all
    errpreset = moderate
    method = traponly
    lteratio = 3.5
    relref = sigglobal
    cmin = 0 F
    gmin = 1 pS


Output and IC/nodeset summary:
                 probe  2       
                 save   3       (current)
                 save   165     (voltage)

......9....

Notice from spectre at time = 306.111 ps during transient analysis `transient145'.
    Found trapezoidal ringing on node nor6.3:A.

......9......

Notice from spectre at time = 374.939 ps during transient analysis `transient145'.
    Found trapezoidal ringing on node nor8.3:A.
Notice from spectre at time = 377.559 ps during transient analysis `transient145'.
    Found trapezoidal ringing on node nor8.3:A.

......9......8......7.....

Notice from spectre at time = 793.647 ps during transient analysis `transient145'.
    Found trapezoidal ringing on node nor10.3:A.

......9......8......7......6

Notice from spectre at time = 833.647 ps during transient analysis `transient145'.
    Found trapezoidal ringing on node nor10.3:A.
        Further occurrences of this notice will be suppressed.

......9......8......7......6......5......4......3......2......1......0
Number of accepted tran steps =             262

Notice from spectre during transient analysis `transient145'.
    Trapezoidal ringing is detected during tran analysis.
        Please use method=trap for better results and performance.


Maximum value achieved for any signal of each quantity: 
V: V(nor10.2:Q) = 1.501 V
I: I(VGND:p) = 158.8 uA
If your circuit contains signals of the same quantity that are vastly different in size (such as high voltage circuitry combined with low voltage control circuitry), you should consider specifying global option `bin_relref=yes'.

~~~~~~~~~~~~~~~~~~~~~~~~~~~~~~~~~
Post-Transient Simulation Summary
~~~~~~~~~~~~~~~~~~~~~~~~~~~~~~~~~
   -   To further speed up simulation, consider
          add ++aps on command line
~~~~~~~~~~~~~~~~~~~~~~~~~~~~~~~~~


During simulation, the CPU load for active processors is :
         0 (9.3 %)       1 (25.3 %)      2 (64.2 %)      3 (19.3 %)
         4 (19.8 %)      5 (30.0 %)      6 (50.8 %)      7 (18.7 %)
         8 (5.0 %)       9 (2.5 %)      10 (30.8 %)     11 (3.1 %)
        Total: 278.8%
Initial condition solution time: CPU = 4.676 ms, elapsed = 6.14786 ms.
Intrinsic tran analysis time:    CPU = 191.35 ms, elapsed = 268.254 ms.
Opening mt file:  /CASNFSHOME2/home/sstatthoudakis/Documents/spectre/Gates/NOR2/nor_validate/corners/corner_pin2/wire_load/nor_tt.mt144
Total time required for tran analysis `transient145': CPU = 199.348 ms, elapsed = 293.105 ms, util. = 68%.
Time accumulated: CPU = 31.4201 s, elapsed = 66.1194 s (1m  6.1s).
Peak resident memory used = 143 Mbytes.


Notice from spectre.
    10 notices suppressed.


***************************
Alter Group `altergroup145'
***************************
Time for altergroup145: CPU = 8.321 ms, elapsed = 9.57584 ms.
Time accumulated: CPU = 31.4285 s, elapsed = 66.1306 s (1m  6.1s).
Peak resident memory used = 143 Mbytes.


*******************************************************
Transient Analysis `transient146': time = (0 s -> 2 ns)
*******************************************************

Notice from spectre during IC analysis `timeSweep_cloned_145', during transient analysis `transient146'.
    GminDC = 1 pS is large enough to noticeably affect the DC solution.
        dV(nor2.net16) = 1.4304 mV
        Use the `gmin_check' option to eliminate or expand this report.

DC simulation time: CPU = 6.546 ms, elapsed = 47.2429 ms.

Notice from spectre during transient analysis `transient146'.
    No outputs were found. Loosening output filter criterion to `allpub'.


Opening the PSFXL file ./nor_tt.raw/transient146.tran.tran ...
Important parameter values:
    start = 0 s
    outputstart = 0 s
    stop = 2 ns
    step = 100 fs
    maxstep = 40 ps
    ic = all
    useprevic = no
    skipdc = no
    reltol = 1e-03
    abstol(V) = 1 uV
    abstol(I) = 1 pA
    temp = 50 C
    tnom = 27 C
    tempeffects = all
    errpreset = moderate
    method = traponly
    lteratio = 3.5
    relref = sigglobal
    cmin = 0 F
    gmin = 1 pS


Output and IC/nodeset summary:
                 probe  2       
                 save   3       (current)
                 save   165     (voltage)

......9....

Notice from spectre at time = 310.386 ps during transient analysis `transient146'.
    Found trapezoidal ringing on node nor6.3:A.
Notice from spectre at time = 313.069 ps during transient analysis `transient146'.
    Found trapezoidal ringing on node nor6.3:A.

......9......8......7....

Notice from spectre at time = 760.794 ps during transient analysis `transient146'.
    Found trapezoidal ringing on node VGND:p.

......9......8......7......

Notice from spectre at time = 800.794 ps during transient analysis `transient146'.
    Found trapezoidal ringing on node VVDD:p.

......9......8......7......6

Notice from spectre at time = 840.794 ps during transient analysis `transient146'.
    Found trapezoidal ringing on node VGND:p.
        Further occurrences of this notice will be suppressed.

......9......8......7......6......5......4......3......2......1......0
Number of accepted tran steps =             254

Notice from spectre during transient analysis `transient146'.
    Trapezoidal ringing is detected during tran analysis.
        Please use method=trap for better results and performance.


Maximum value achieved for any signal of each quantity: 
V: V(nor10.2:Q) = 1.5 V
I: I(VGND:p) = 150.1 uA
If your circuit contains signals of the same quantity that are vastly different in size (such as high voltage circuitry combined with low voltage control circuitry), you should consider specifying global option `bin_relref=yes'.

~~~~~~~~~~~~~~~~~~~~~~~~~~~~~~~~~
Post-Transient Simulation Summary
~~~~~~~~~~~~~~~~~~~~~~~~~~~~~~~~~
   -   To further speed up simulation, consider
          add ++aps on command line
~~~~~~~~~~~~~~~~~~~~~~~~~~~~~~~~~


During simulation, the CPU load for active processors is :
         0 (9.2 %)       1 (25.5 %)      2 (63.8 %)      3 (19.8 %)
         4 (19.7 %)      5 (29.9 %)      6 (51.0 %)      7 (18.6 %)
         8 (5.0 %)       9 (2.5 %)      10 (30.6 %)     11 (3.1 %)
        Total: 278.7%
Initial condition solution time: CPU = 6.607 ms, elapsed = 47.5831 ms.
Intrinsic tran analysis time:    CPU = 186.651 ms, elapsed = 270.89 ms.
Opening mt file:  /CASNFSHOME2/home/sstatthoudakis/Documents/spectre/Gates/NOR2/nor_validate/corners/corner_pin2/wire_load/nor_tt.mt145
Total time required for tran analysis `transient146': CPU = 196.494 ms, elapsed = 334.197 ms, util. = 58.8%.
Time accumulated: CPU = 31.6311 s, elapsed = 66.5081 s (1m  6.5s).
Peak resident memory used = 143 Mbytes.


Notice from spectre.
    8 notices suppressed.


***************************
Alter Group `altergroup146'
***************************
Time for altergroup146: CPU = 7.822 ms, elapsed = 8.95214 ms.
Time accumulated: CPU = 31.6391 s, elapsed = 66.5191 s (1m  6.5s).
Peak resident memory used = 143 Mbytes.


*******************************************************
Transient Analysis `transient147': time = (0 s -> 2 ns)
*******************************************************
DC simulation time: CPU = 3.232 ms, elapsed = 3.23486 ms.

Notice from spectre during transient analysis `transient147'.
    No outputs were found. Loosening output filter criterion to `allpub'.


Opening the PSFXL file ./nor_tt.raw/transient147.tran.tran ...
Important parameter values:
    start = 0 s
    outputstart = 0 s
    stop = 2 ns
    step = 100 fs
    maxstep = 40 ps
    ic = all
    useprevic = no
    skipdc = no
    reltol = 1e-03
    abstol(V) = 1 uV
    abstol(I) = 1 pA
    temp = 125 C
    tnom = 27 C
    tempeffects = all
    errpreset = moderate
    method = traponly
    lteratio = 3.5
    relref = sigglobal
    cmin = 0 F
    gmin = 1 pS


Output and IC/nodeset summary:
                 probe  2       
                 save   3       (current)
                 save   165     (voltage)

......9......8......7.....

Notice from spectre at time = 780.019 ps during transient analysis `transient147'.
    Found trapezoidal ringing on node VVDD:p.

......9......8......7......

Notice from spectre at time = 820.019 ps during transient analysis `transient147'.
    Found trapezoidal ringing on node VGND:p.

......9......8......7......6.

Notice from spectre at time = 860.019 ps during transient analysis `transient147'.
    Found trapezoidal ringing on node VVDD:p.

......9......8......7......6..

Notice from spectre at time = 900.019 ps during transient analysis `transient147'.
    Found trapezoidal ringing on node VGND:p.

......9......8......7......6....

Notice from spectre at time = 940.019 ps during transient analysis `transient147'.
    Found trapezoidal ringing on node VVDD:p.
        Further occurrences of this notice will be suppressed.

......9......8......7......6......5......4......3......2......1......0
Number of accepted tran steps =             243

Notice from spectre during transient analysis `transient147'.
    Trapezoidal ringing is detected during tran analysis.
        Please use method=trap for better results and performance.


Maximum value achieved for any signal of each quantity: 
V: V(nor10.net16) = 1.494 V
I: I(VGND:p) = 138.3 uA
If your circuit contains signals of the same quantity that are vastly different in size (such as high voltage circuitry combined with low voltage control circuitry), you should consider specifying global option `bin_relref=yes'.

~~~~~~~~~~~~~~~~~~~~~~~~~~~~~~~~~
Post-Transient Simulation Summary
~~~~~~~~~~~~~~~~~~~~~~~~~~~~~~~~~
   -   To further speed up simulation, consider
          add ++aps on command line
~~~~~~~~~~~~~~~~~~~~~~~~~~~~~~~~~


During simulation, the CPU load for active processors is :
         0 (9.2 %)       1 (25.7 %)      2 (63.5 %)      3 (20.2 %)
         4 (19.7 %)      5 (29.7 %)      6 (51.3 %)      7 (18.5 %)
         8 (5.0 %)       9 (2.5 %)      10 (30.4 %)     11 (3.1 %)
        Total: 278.8%
Initial condition solution time: CPU = 3.299 ms, elapsed = 3.78513 ms.
Intrinsic tran analysis time:    CPU = 187.537 ms, elapsed = 279.856 ms.
Opening mt file:  /CASNFSHOME2/home/sstatthoudakis/Documents/spectre/Gates/NOR2/nor_validate/corners/corner_pin2/wire_load/nor_tt.mt146
Total time required for tran analysis `transient147': CPU = 193.868 ms, elapsed = 298.137 ms, util. = 65%.
Time accumulated: CPU = 31.8382 s, elapsed = 66.8514 s (1m  6.9s).
Peak resident memory used = 143 Mbytes.


Notice from spectre.
    7 notices suppressed.

Licensing Information:
Lic Summary:
[14:49:44.198851] Cdslmd servers:5280@10.64.82.10
[14:49:44.198891] Feature usage summary:
[14:49:44.198891] Virtuoso_Multi_mode_Simulation


Aggregate audit (2:49:44 PM, Wed Oct 29, 2025):
Time used: CPU = 31.9 s, elapsed = 66.9 s (1m  6.9s), util. = 47.6%.
Time spent in licensing: elapsed = 42.7 ms.
Peak memory used = 143 Mbytes.
Simulation started at: 2:48:37 PM, Wed Oct 29, 2025, ended at: 2:49:44 PM, Wed Oct 29, 2025, with elapsed time (wall clock): 66.9 s (1m  6.9s).
spectre completes with 0 errors, 12 warnings, and 1149 notices.
