
Spectre (R) Circuit Simulator
Version 23.1.0.242.isr1 64bit -- 7 Sep 2023
Copyright (C) 1989-2023 Cadence Design Systems, Inc. All rights reserved worldwide. Cadence and Spectre are registered trademarks of Cadence Design Systems, Inc. All others are the property of their respective holders.

Includes RSA BSAFE(R) Cryptographic or Security Protocol Software from RSA Security, Inc.

User: sstatthoudakis   Host: torreyridge   HostID: 7F0100   PID: 30893
Memory  available: 104.4382 GB  physical: 135.0278 GB
Linux   : CentOS Linux release 7 (Core)
CPU Type: Intel(R) Xeon(R) Silver 4114 CPU @ 2.20GHz
All processors running at 2194.8 MHz
        Socket: Processors
        0:       0
        2:       1
        4:       2
        6:       3
        8:       4
        10:      5
        12:      6
        14:      7
        16:      8
        18:      9
        20:     10
        22:     11
        
System load averages (1min, 5min, 15min) : 28.7 %, 27.2 %, 25.0 %
This is a virtual machine


Simulating `nor_ff.scs' on torreyridge at 2:46:23 PM, Wed Oct 29, 2025 (process id: 30893).
Current working directory: /CASNFSHOME2/home/sstatthoudakis/Documents/spectre/Gates/NOR2/nor_validate/corners/corner_pin2/wire_load
Command line:
     \
        /CASNFSHOME/home/edatools/cadence/2023-24/RHELx86/SPECTRE_23.10.242/tools.lnx86/bin/spectre  \
        -64 nor_ff.scs

Licensing Information:
[14:46:23.231841] Configured Lic search path (22.01-s002): 5280@10.64.82.10

Licensing Information:
[14:46:23.040529] Periodic Lic check successful

Loading /CASNFSHOME/home/edatools/cadence/2023-24/RHELx86/SPECTRE_23.10.242/tools.lnx86/cmi/lib/64bit/5.0/libinfineon_sh.so ...
Loading /CASNFSHOME/home/edatools/cadence/2023-24/RHELx86/SPECTRE_23.10.242/tools.lnx86/cmi/lib/64bit/5.0/libphilips_I_sh.so ...
Loading /CASNFSHOME/home/edatools/cadence/2023-24/RHELx86/SPECTRE_23.10.242/tools.lnx86/cmi/lib/64bit/5.0/libphilips_sh.so ...
Loading /CASNFSHOME/home/edatools/cadence/2023-24/RHELx86/SPECTRE_23.10.242/tools.lnx86/cmi/lib/64bit/5.0/libsparam_sh.so ...
Loading /CASNFSHOME/home/edatools/cadence/2023-24/RHELx86/SPECTRE_23.10.242/tools.lnx86/cmi/lib/64bit/5.0/libstmodels_sh.so ...
Reading file:  /CASNFSHOME2/home/sstatthoudakis/Documents/spectre/Gates/NOR2/nor_validate/corners/corner_pin2/wire_load/nor_ff.scs
Reading file:  /CASNFSHOME/home/edatools/cadence/2023-24/RHELx86/SPECTRE_23.10.242/tools.lnx86/spectre/etc/configs/spectre.cfg
Reading file:  /CASNFSHOME/home/tsaikaterini/IHP/IHP_Generation_files/130ng/ihp013ng_include_all_fast.scs
Reading file:  /CASNFSHOME/home/tsaikaterini/IHP/IHP_Generation_files/130ng/SG13S_618_rev1.12.15/tech/SG13_HBT/VBIC/spectre/SG13_cornerBIP.scs
Reading file:  /CASNFSHOME/home/tsaikaterini/IHP/IHP_Generation_files/130ng/SG13S_618_rev1.12.15/tech/SG13_HBT/VBIC/spectre/SG13_hbt_mm.scs
Reading file:  /CASNFSHOME/home/tsaikaterini/IHP/IHP_Generation_files/130ng/SG13S_618_rev1.12.15/tech/SG13_HBT/VBIC/spectre/SG13_hbt.lib
Reading file:  /CASNFSHOME/home/tsaikaterini/IHP/IHP_Generation_files/130ng/SG13S_618_rev1.12.15/tech/SG13_HBT/VBIC/spectre/SG13_hbt_stat.scs
Reading file:  /CASNFSHOME/home/tsaikaterini/IHP/IHP_Generation_files/130ng/SG13S_618_rev1.12.15/tech/SG13_MOS/library/spectre/cornerMOSlv_psp.scs
Reading file:  /CASNFSHOME/home/tsaikaterini/IHP/IHP_Generation_files/130ng/SG13S_618_rev1.12.15/tech/SG13_MOS/library/spectre/sg13_moslv_psp_stat.scs
Reading file:  /CASNFSHOME/home/tsaikaterini/IHP/IHP_Generation_files/130ng/SG13S_618_rev1.12.15/tech/SG13_MOS/library/spectre/sg13_moslv_psp_mod.lib
Reading file:  /CASNFSHOME/home/tsaikaterini/IHP/IHP_Generation_files/130ng/SG13S_618_rev1.12.15/tech/SG13_MOS/library/spectre/sg13_moslv_psp_parm.scs
Reading file:  /CASNFSHOME/home/tsaikaterini/IHP/IHP_Generation_files/130ng/SG13S_618_rev1.12.15/tech/SG13_MOS/library/spectre/cornerMOShv_psp.scs
Reading file:  /CASNFSHOME/home/tsaikaterini/IHP/IHP_Generation_files/130ng/SG13S_618_rev1.12.15/tech/SG13_MOS/library/spectre/sg13_moshv_psp_stat.scs
Reading file:  /CASNFSHOME/home/tsaikaterini/IHP/IHP_Generation_files/130ng/SG13S_618_rev1.12.15/tech/SG13_MOS/library/spectre/sg13_moshv_psp_mod.lib
Reading file:  /CASNFSHOME/home/tsaikaterini/IHP/IHP_Generation_files/130ng/SG13S_618_rev1.12.15/tech/SG13_MOS/library/spectre/sg13_moshv_psp_parm.scs

Warning from spectre in `nmoselt', during circuit read-in.
    WARNING (SFE-2296): "/CASNFSHOME/home/tsaikaterini/IHP/IHP_Generation_files/130ng/SG13S_618_rev1.12.15/tech/SG13_MOS/library/spectre/sg13_moshv_psp_mod.lib" 79: The inline subckt definition `nmoselt' does not contain any inline components. The `inline' qualifier will therefore be ignored.

Reading file:  /CASNFSHOME/home/tsaikaterini/IHP/IHP_Generation_files/130ng/SG13S_618_rev1.12.15/tech/SG13_MOS/library/spectre/sg13_svaricaphv_mosvar_mod.lib
Reading file:  /CASNFSHOME/home/tsaikaterini/IHP/IHP_Generation_files/130ng/SG13S_618_rev1.12.15/tech/SG13_PASSIVES/spectre/SG13_cornerRES.scs
Reading file:  /CASNFSHOME/home/tsaikaterini/IHP/IHP_Generation_files/130ng/SG13S_618_rev1.12.15/tech/SG13_PASSIVES/spectre/SG13_res_mm.scs
Reading file:  /CASNFSHOME/home/tsaikaterini/IHP/IHP_Generation_files/130ng/SG13S_618_rev1.12.15/tech/SG13_PASSIVES/spectre/SG13_res_stat.scs
Reading file:  /CASNFSHOME/home/tsaikaterini/IHP/IHP_Generation_files/130ng/SG13S_618_rev1.12.15/tech/SG13_PASSIVES/spectre/SG13_res.lib
Reading file:  /CASNFSHOME/home/tsaikaterini/IHP/IHP_Generation_files/130ng/SG13S_618_rev1.12.15/tech/SG13_PASSIVES/spectre/SG13_cornerCAP.scs
Reading file:  /CASNFSHOME/home/tsaikaterini/IHP/IHP_Generation_files/130ng/SG13S_618_rev1.12.15/tech/SG13_PASSIVES/spectre/SG13_cap_mm.scs
Reading file:  /CASNFSHOME/home/tsaikaterini/IHP/IHP_Generation_files/130ng/SG13S_618_rev1.12.15/tech/SG13_PASSIVES/spectre/SG13_cap_stat.scs
Reading file:  /CASNFSHOME/home/tsaikaterini/IHP/IHP_Generation_files/130ng/SG13S_618_rev1.12.15/tech/SG13_PASSIVES/spectre/SG13_cap.lib
Reading file:  /CASNFSHOME/home/tsaikaterini/IHP/IHP_Generation_files/130ng/SG13S_618_rev1.12.15/tech/SG13_PASSIVES/spectre/Ind_unit_4PI
Reading file:  /CASNFSHOME/home/tsaikaterini/IHP/IHP_Generation_files/130ng/SG13S_618_rev1.12.15/tech/SG13_PASSIVES/spectre/Parameters_define_4PI
Reading file:  /CASNFSHOME/home/tsaikaterini/IHP/IHP_Generation_files/130ng/SG13S_618_rev1.12.15/tech/SG13_PASSIVES/spectre/sg13s_dschottky_nbl1_mod.lib
Reading file:  /CASNFSHOME/home/tsaikaterini/IHP/IHP_Generation_files/130ng/SG13S_618_rev1.12.15/tech/SG13_PASSIVES/spectre/SG13_diodes.lib
Reading file:  /CASNFSHOME/home/tsaikaterini/IHP/IHP_Generation_files/130ng/SG13S_618_rev1.12.15/tech/SG13_MOS/library/spectre/CheckMOSstat.scs
Reading file:  /CASNFSHOME/home/tsaikaterini/IHP/IHP_Generation_files/130ng/SG13S_618_rev1.12.15/tech/SG13_MOS/library/spectre/CheckMOSdyn.scs
Reading file:  /CASNFSHOME/home/tsaikaterini/IHP/IHP_Generation_files/130ng/SG13S_618_rev1.12.15/tech/SG13_ESD/spectre/SG13_esd.lib
Reading file:  /CASNFSHOME/home/tsaikaterini/IHP/IHP_Generation_files/130ng/SG13S_618_rev1.12.15/tech/SG13_PASSIVES/spectre/SG13_cornerTSV.scs
Reading file:  /CASNFSHOME/home/tsaikaterini/IHP/IHP_Generation_files/130ng/SG13S_618_rev1.12.15/tech/SG13_PASSIVES/spectre/SG13_paramsTSV.scs
Reading file:  /CASNFSHOME/home/tsaikaterini/IHP/IHP_Generation_files/130ng/SG13S_618_rev1.12.15/tech/SG13_PASSIVES/spectre/SG13_tsv.lib
Reading file:  /CASNFSHOME/home/tsaikaterini/IHP/IHP_Generation_files/130ng/ixc013ng_stdcell_rc.scs
Time for NDB Parsing: CPU = 617.357 ms, elapsed = 1.48333 s.
Time accumulated: CPU = 729.608 ms, elapsed = 1.48334 s.
Peak resident memory used = 113 Mbytes.


Warning from spectre in `NO2JIX0':`nor1', during hierarchy flattening.
    WARNING (SFE-103): "/CASNFSHOME/home/tsaikaterini/IHP/IHP_Generation_files/130ng/ixc013ng_stdcell_rc.scs" 28325: Subcircuit parameter `nrd', defined for subcircuit `sg13_lv_pmos', has been ignored because it is invalid. Check the parameters that are defined for the instantiated subcircuit and rerun the simulation.
    WARNING (SFE-103): "/CASNFSHOME/home/tsaikaterini/IHP/IHP_Generation_files/130ng/ixc013ng_stdcell_rc.scs" 28325: Subcircuit parameter `nrs', defined for subcircuit `sg13_lv_pmos', has been ignored because it is invalid. Check the parameters that are defined for the instantiated subcircuit and rerun the simulation.
    WARNING (SFE-103): "/CASNFSHOME/home/tsaikaterini/IHP/IHP_Generation_files/130ng/ixc013ng_stdcell_rc.scs" 28328: Subcircuit parameter `nrd', defined for subcircuit `sg13_lv_pmos', has been ignored because it is invalid. Check the parameters that are defined for the instantiated subcircuit and rerun the simulation.
    WARNING (SFE-103): "/CASNFSHOME/home/tsaikaterini/IHP/IHP_Generation_files/130ng/ixc013ng_stdcell_rc.scs" 28328: Subcircuit parameter `nrs', defined for subcircuit `sg13_lv_pmos', has been ignored because it is invalid. Check the parameters that are defined for the instantiated subcircuit and rerun the simulation.
    WARNING (SFE-103): "/CASNFSHOME/home/tsaikaterini/IHP/IHP_Generation_files/130ng/ixc013ng_stdcell_rc.scs" 28330: Subcircuit parameter `nrd', defined for subcircuit `sg13_lv_nmos', has been ignored because it is invalid. Check the parameters that are defined for the instantiated subcircuit and rerun the simulation.
        Further occurrences of this warning will be suppressed.

Time for Elaboration: CPU = 34.115 ms, elapsed = 147.602 ms.
Time accumulated: CPU = 763.958 ms, elapsed = 1.63262 s.
Peak resident memory used = 121 Mbytes.


Notice from spectre in `NO2JIX0':`nor1', during hierarchy flattening.
    nor1.c5: Terminals are connected together (to node `VSS').
Notice from spectre in `NO2JIX0':`nor2', during hierarchy flattening.
    nor2.c5: Terminals are connected together (to node `VSS').
Notice from spectre in `NO2JIX0':`nor3', during hierarchy flattening.
    nor3.c5: Terminals are connected together (to node `VSS').
Notice from spectre in `NO2JIX0':`nor4', during hierarchy flattening.
    nor4.c5: Terminals are connected together (to node `VSS').
Notice from spectre in `NO2JIX0':`nor5', during hierarchy flattening.
    nor5.c5: Terminals are connected together (to node `VSS').
        Further occurrences of this notice will be suppressed.

Loading /CASNFSHOME/home/edatools/cadence/2023-24/RHELx86/SPECTRE_23.10.242/tools.lnx86/mdl/lib/64bit/libSpectreEH_sh.so ...

Time for EDB Visiting: CPU = 28.715 ms, elapsed = 33.3359 ms.
Time accumulated: CPU = 792.882 ms, elapsed = 1.66754 s.
Peak resident memory used = 128 Mbytes.


Warning from spectre during initial setup.
    WARNING (SPECTRE-17237): Assert violations will be written to the sqldb file because the 'checklimitdest' option has not been specified.
    WARNING (SPECTRE-17607): Assert `check_sg13s_lv_nmosHV_vgs' is ignored because it contains an expression which is not supported by native evaluator. 
    WARNING (SPECTRE-17607): Assert `check_sg13s_lv_nmosHV_vgd' is ignored because it contains an expression which is not supported by native evaluator. 
    WARNING (SPECTRE-17607): Assert `check_sg13s_lv_nmosHV_vds' is ignored because it contains an expression which is not supported by native evaluator. 
    WARNING (SPECTRE-17607): Assert `check_sg13s_lv_nmosHV_vdb' is ignored because it contains an expression which is not supported by native evaluator. 
    WARNING (SPECTRE-17607): Assert `check_sg13s_lv_nmosHV_vgb' is ignored because it contains an expression which is not supported by native evaluator. 
        Further occurrences of this warning will be suppressed.
Notice from spectre during topology check.
    Only one connection to the following 11 nodes:
        X_in1_wire.Capacitance*M
        X_out_wire.Capacitance*M
        X_out2_wire.Capacitance*M
        X_out3_wire.Capacitance*M
        X_out4_wire.Capacitance*M
        Further occurrences of this notice will be suppressed.
    No DC path from node `X_in1_wire.Capacitance*M' to ground, Gmin installed to provide path.
    No DC path from node `X_out_wire.Capacitance*M' to ground, Gmin installed to provide path.
    No DC path from node `X_out2_wire.Capacitance*M' to ground, Gmin installed to provide path.
    No DC path from node `X_out3_wire.Capacitance*M' to ground, Gmin installed to provide path.
    No DC path from node `X_out4_wire.Capacitance*M' to ground, Gmin installed to provide path.
        Further occurrences of this notice will be suppressed.


Global user options:
               temp = 0

Scoped user options:

Circuit inventory:
              nodes 165
          capacitor 181   
          pspnqs103 40    
           resistor 131   
            vsource 3     

Analysis and control statement inventory:
         altergroup 146   
               tran 147   

Output statements:
             .probe 0     
           .measure 3     
               save 0     

Design checks inventory:
          paramtest 160   
             assert 40    


Notice from spectre.
    12 notices suppressed.
    82 warnings suppressed.

Time for parsing: CPU = 20.659 ms, elapsed = 1.35145 s.
Time accumulated: CPU = 813.793 ms, elapsed = 3.02082 s.
Peak resident memory used = 131 Mbytes.

~~~~~~~~~~~~~~~~~~~~~~
Pre-Simulation Summary
~~~~~~~~~~~~~~~~~~~~~~
~~~~~~~~~~~~~~~~~~~~~~

Notice from spectre during transient analysis `transient1'.
    No checklimit analysis defined for asserts. A default checklimit analysis 'SpectreChecklimitAnal' has been created with all asserts enabled.


*****************************************************
Transient Analysis `transient1': time = (0 s -> 2 ns)
*****************************************************

Notice from spectre during IC analysis `timeSweep', during transient analysis `transient1'.
    GminDC = 1 pS is large enough to noticeably affect the DC solution.
        dV(nor2.net16) = 2.00038 mV
        Use the `gmin_check' option to eliminate or expand this report.

DC simulation time: CPU = 5.74 ms, elapsed = 7.32303 ms.

Notice from spectre during transient analysis `transient1'.
    No outputs were found. Loosening output filter criterion to `allpub'.


Opening the PSFXL file ./nor_ff.raw/transient1.tran.tran ...
Important parameter values:
    start = 0 s
    outputstart = 0 s
    stop = 2 ns
    step = 100 fs
    maxstep = 40 ps
    ic = all
    useprevic = no
    skipdc = no
    reltol = 1e-03
    abstol(V) = 1 uV
    abstol(I) = 1 pA
    temp = 0 C
    tnom = 27 C
    tempeffects = all
    errpreset = moderate
    method = traponly
    lteratio = 3.5
    relref = sigglobal
    cmin = 0 F
    gmin = 1 pS


Output and IC/nodeset summary:
                 probe  2       
                 save   3       (current)
                 save   165     (voltage)

......9......8......7......6......

Notice from spectre at time = 1.01878 ns during transient analysis `transient1'.
    Found trapezoidal ringing on node VVDD:p.

......9......8......7......6......5.

Notice from spectre at time = 1.05878 ns during transient analysis `transient1'.
    Found trapezoidal ringing on node VGND:p.

......9......8......7......6......5..

Notice from spectre at time = 1.09878 ns during transient analysis `transient1'.
    Found trapezoidal ringing on node VVDD:p.

......9......8......7......6......5...

Notice from spectre at time = 1.12689 ns during transient analysis `transient1'.
    Found trapezoidal ringing on node VGND:p.

......9......8......7......6......5....

Notice from spectre at time = 1.155 ns during transient analysis `transient1'.
    Found trapezoidal ringing on node VVDD:p.
        Further occurrences of this notice will be suppressed.

......9......8......7......6......5......4......3......2......1......0
Number of accepted tran steps =             261

Notice from spectre during transient analysis `transient1'.
    Trapezoidal ringing is detected during tran analysis.
        Please use method=trap for better results and performance.


Maximum value achieved for any signal of each quantity: 
V: V(nor10.net16) = 1.01 V
I: I(VGND:p) = 68.7 uA
If your circuit contains signals of the same quantity that are vastly different in size (such as high voltage circuitry combined with low voltage control circuitry), you should consider specifying global option `bin_relref=yes'.

~~~~~~~~~~~~~~~~~~~~~~~~~~~~~~~~~
Post-Transient Simulation Summary
~~~~~~~~~~~~~~~~~~~~~~~~~~~~~~~~~
   -   To further speed up simulation, consider
          add ++aps on command line
~~~~~~~~~~~~~~~~~~~~~~~~~~~~~~~~~


During simulation, the CPU load for active processors is :
         0 (4.8 %)       1 (26.3 %)      2 (6.0 %)       3 (100.0 %)
         4 (3.6 %)       5 (2.4 %)       6 (1.8 %)       7 (20.5 %)
         8 (3.0 %)      11 (100.0 %)    
        Total: 269.2%
Initial condition solution time: CPU = 5.836 ms, elapsed = 7.81322 ms.
Intrinsic tran analysis time:    CPU = 205.274 ms, elapsed = 331.944 ms.
Opening measure  file:  /CASNFSHOME2/home/sstatthoudakis/Documents/spectre/Gates/NOR2/nor_validate/corners/corner_pin2/wire_load/nor_ff.measure
Opening mt file:  /CASNFSHOME2/home/sstatthoudakis/Documents/spectre/Gates/NOR2/nor_validate/corners/corner_pin2/wire_load/nor_ff.mt0
Total time required for tran analysis `transient1': CPU = 286.896 ms, elapsed = 602.255 ms, util. = 47.6%.
Time accumulated: CPU = 1.11781 s, elapsed = 3.67091 s.
Peak resident memory used = 141 Mbytes.


*************************
Alter Group `altergroup1'
*************************
Time for altergroup1: CPU = 10.727 ms, elapsed = 11.1101 ms.
Time accumulated: CPU = 1.12881 s, elapsed = 3.68339 s.
Peak resident memory used = 141 Mbytes.


*****************************************************
Transient Analysis `transient2': time = (0 s -> 2 ns)
*****************************************************

Notice from spectre during IC analysis `timeSweep_cloned_1', during transient analysis `transient2'.
    GminDC = 1 pS is large enough to noticeably affect the DC solution.
        dV(nor6.net16) = 252.865 uV
        Use the `gmin_check' option to eliminate or expand this report.

DC simulation time: CPU = 3.85 ms, elapsed = 5.50199 ms.

Notice from spectre during transient analysis `transient2'.
    No outputs were found. Loosening output filter criterion to `allpub'.


Opening the PSFXL file ./nor_ff.raw/transient2.tran.tran ...
Important parameter values:
    start = 0 s
    outputstart = 0 s
    stop = 2 ns
    step = 100 fs
    maxstep = 40 ps
    ic = all
    useprevic = no
    skipdc = no
    reltol = 1e-03
    abstol(V) = 1 uV
    abstol(I) = 1 pA
    temp = 50 C
    tnom = 27 C
    tempeffects = all
    errpreset = moderate
    method = traponly
    lteratio = 3.5
    relref = sigglobal
    cmin = 0 F
    gmin = 1 pS


Output and IC/nodeset summary:
                 probe  2       
                 save   3       (current)
                 save   165     (voltage)

......9......8......7......6......

Notice from spectre at time = 1.01266 ns during transient analysis `transient2'.
    Found trapezoidal ringing on node VVDD:p.

......9......8......7......6......5

Notice from spectre at time = 1.05266 ns during transient analysis `transient2'.
    Found trapezoidal ringing on node VGND:p.

......9......8......7......6......5..

Notice from spectre at time = 1.09266 ns during transient analysis `transient2'.
    Found trapezoidal ringing on node VVDD:p.

......9......8......7......6......5...

Notice from spectre at time = 1.12383 ns during transient analysis `transient2'.
    Found trapezoidal ringing on node VGND:p.

......9......8......7......6......5....

Notice from spectre at time = 1.155 ns during transient analysis `transient2'.
    Found trapezoidal ringing on node VVDD:p.
        Further occurrences of this notice will be suppressed.

......9......8......7......6......5......4......3......2......1......0
Number of accepted tran steps =             255

Notice from spectre during transient analysis `transient2'.
    Trapezoidal ringing is detected during tran analysis.
        Please use method=trap for better results and performance.


Maximum value achieved for any signal of each quantity: 
V: V(nor10.2:Q) = 1.005 V
I: I(VGND:p) = 66.31 uA
If your circuit contains signals of the same quantity that are vastly different in size (such as high voltage circuitry combined with low voltage control circuitry), you should consider specifying global option `bin_relref=yes'.

~~~~~~~~~~~~~~~~~~~~~~~~~~~~~~~~~
Post-Transient Simulation Summary
~~~~~~~~~~~~~~~~~~~~~~~~~~~~~~~~~
   -   To further speed up simulation, consider
          add ++aps on command line
~~~~~~~~~~~~~~~~~~~~~~~~~~~~~~~~~


During simulation, the CPU load for active processors is :
         0 (4.3 %)       1 (22.2 %)      2 (5.3 %)       3 (100.0 %)
         4 (9.3 %)       5 (2.5 %)       6 (1.5 %)       7 (19.5 %)
         8 (3.3 %)       9 (1.0 %)      11 (100.0 %)    
        Total: 269.7%
Initial condition solution time: CPU = 3.906 ms, elapsed = 5.96189 ms.
Intrinsic tran analysis time:    CPU = 187.166 ms, elapsed = 301.593 ms.
Opening mt file:  /CASNFSHOME2/home/sstatthoudakis/Documents/spectre/Gates/NOR2/nor_validate/corners/corner_pin2/wire_load/nor_ff.mt1
Total time required for tran analysis `transient2': CPU = 194.552 ms, elapsed = 325.177 ms, util. = 59.8%.
Time accumulated: CPU = 1.32879 s, elapsed = 4.04436 s.
Peak resident memory used = 141 Mbytes.


*************************
Alter Group `altergroup2'
*************************
Time for altergroup2: CPU = 6.452 ms, elapsed = 6.86622 ms.
Time accumulated: CPU = 1.33535 s, elapsed = 4.05264 s.
Peak resident memory used = 141 Mbytes.


*****************************************************
Transient Analysis `transient3': time = (0 s -> 2 ns)
*****************************************************
DC simulation time: CPU = 3.262 ms, elapsed = 3.263 ms.

Notice from spectre during transient analysis `transient3'.
    No outputs were found. Loosening output filter criterion to `allpub'.


Opening the PSFXL file ./nor_ff.raw/transient3.tran.tran ...
Important parameter values:
    start = 0 s
    outputstart = 0 s
    stop = 2 ns
    step = 100 fs
    maxstep = 40 ps
    ic = all
    useprevic = no
    skipdc = no
    reltol = 1e-03
    abstol(V) = 1 uV
    abstol(I) = 1 pA
    temp = 125 C
    tnom = 27 C
    tempeffects = all
    errpreset = moderate
    method = traponly
    lteratio = 3.5
    relref = sigglobal
    cmin = 0 F
    gmin = 1 pS


Output and IC/nodeset summary:
                 probe  2       
                 save   3       (current)
                 save   165     (voltage)

......9......8.

Notice from spectre at time = 436.411 ps during transient analysis `transient3'.
    Found trapezoidal ringing on node nor6.3:A.

......9......8......7......6......5..

Notice from spectre at time = 1.10838 ns during transient analysis `transient3'.
    Found trapezoidal ringing on node nor10.3:A.

......9......8......7......6......5....

Notice from spectre at time = 1.13169 ns during transient analysis `transient3'.
    Found trapezoidal ringing on node nor10.3:A.

......9......8......7......6......5.....

Notice from spectre at time = 1.155 ns during transient analysis `transient3'.
    Found trapezoidal ringing on node nor10.3:A.

......9......8......7......6......5......4......3......2......1......0
Number of accepted tran steps =             252

Notice from spectre during transient analysis `transient3'.
    Trapezoidal ringing is detected during tran analysis.
        Please use method=trap for better results and performance.


Maximum value achieved for any signal of each quantity: 
V: V(nor10.net16) = 999.9 mV
I: I(VGND:p) = 64.61 uA
If your circuit contains signals of the same quantity that are vastly different in size (such as high voltage circuitry combined with low voltage control circuitry), you should consider specifying global option `bin_relref=yes'.

~~~~~~~~~~~~~~~~~~~~~~~~~~~~~~~~~
Post-Transient Simulation Summary
~~~~~~~~~~~~~~~~~~~~~~~~~~~~~~~~~
   -   To further speed up simulation, consider
          add ++aps on command line
~~~~~~~~~~~~~~~~~~~~~~~~~~~~~~~~~


During simulation, the CPU load for active processors is :
         0 (4.2 %)       1 (20.5 %)      2 (5.1 %)       3 (100.0 %)
         4 (13.3 %)      5 (2.8 %)       6 (1.4 %)       7 (18.1 %)
         8 (3.0 %)      11 (100.0 %)    
        Total: 270.1%
Initial condition solution time: CPU = 3.323 ms, elapsed = 3.64995 ms.
Intrinsic tran analysis time:    CPU = 174.821 ms, elapsed = 269.654 ms.
Opening mt file:  /CASNFSHOME2/home/sstatthoudakis/Documents/spectre/Gates/NOR2/nor_validate/corners/corner_pin2/wire_load/nor_ff.mt2
Total time required for tran analysis `transient3': CPU = 181.225 ms, elapsed = 289.31 ms, util. = 62.6%.
Time accumulated: CPU = 1.52292 s, elapsed = 4.37934 s.
Peak resident memory used = 141 Mbytes.


*************************
Alter Group `altergroup3'
*************************
Time for altergroup3: CPU = 9.351 ms, elapsed = 9.61685 ms.
Time accumulated: CPU = 1.5324 s, elapsed = 4.39033 s.
Peak resident memory used = 141 Mbytes.


*****************************************************
Transient Analysis `transient4': time = (0 s -> 2 ns)
*****************************************************

Notice from spectre during IC analysis `timeSweep_cloned_3', during transient analysis `transient4'.
    GminDC = 1 pS is large enough to noticeably affect the DC solution.
        dV(nor4.net16) = 1.9991 mV
        Use the `gmin_check' option to eliminate or expand this report.

DC simulation time: CPU = 5.106 ms, elapsed = 6.24299 ms.

Notice from spectre during transient analysis `transient4'.
    No outputs were found. Loosening output filter criterion to `allpub'.


Opening the PSFXL file ./nor_ff.raw/transient4.tran.tran ...
Important parameter values:
    start = 0 s
    outputstart = 0 s
    stop = 2 ns
    step = 100 fs
    maxstep = 40 ps
    ic = all
    useprevic = no
    skipdc = no
    reltol = 1e-03
    abstol(V) = 1 uV
    abstol(I) = 1 pA
    temp = 0 C
    tnom = 27 C
    tempeffects = all
    errpreset = moderate
    method = traponly
    lteratio = 3.5
    relref = sigglobal
    cmin = 0 F
    gmin = 1 pS


Output and IC/nodeset summary:
                 probe  2       
                 save   3       (current)
                 save   165     (voltage)

......9......8......7......6......

Notice from spectre at time = 1.01811 ns during transient analysis `transient4'.
    Found trapezoidal ringing on node VGND:p.

......9......8......7......6......5.

Notice from spectre at time = 1.05811 ns during transient analysis `transient4'.
    Found trapezoidal ringing on node VGND:p.

......9......8......7......6......5..

Notice from spectre at time = 1.09811 ns during transient analysis `transient4'.
    Found trapezoidal ringing on node VGND:p.

......9......8......7......6......5...

Notice from spectre at time = 1.12656 ns during transient analysis `transient4'.
    Found trapezoidal ringing on node VGND:p.

......9......8......7......6......5....

Notice from spectre at time = 1.155 ns during transient analysis `transient4'.
    Found trapezoidal ringing on node VGND:p.
        Further occurrences of this notice will be suppressed.

......9......8......7......6......5......4......3......2......1......0
Number of accepted tran steps =             257

Notice from spectre during transient analysis `transient4'.
    Trapezoidal ringing is detected during tran analysis.
        Please use method=trap for better results and performance.


Maximum value achieved for any signal of each quantity: 
V: V(nor10.net16) = 1.019 V
I: I(VGND:p) = 70.65 uA
If your circuit contains signals of the same quantity that are vastly different in size (such as high voltage circuitry combined with low voltage control circuitry), you should consider specifying global option `bin_relref=yes'.

~~~~~~~~~~~~~~~~~~~~~~~~~~~~~~~~~
Post-Transient Simulation Summary
~~~~~~~~~~~~~~~~~~~~~~~~~~~~~~~~~
   -   To further speed up simulation, consider
          add ++aps on command line
~~~~~~~~~~~~~~~~~~~~~~~~~~~~~~~~~


During simulation, the CPU load for active processors is :
         0 (7.2 %)       1 (19.5 %)      2 (8.5 %)       3 (100.0 %)
         4 (15.5 %)      5 (4.7 %)       6 (2.8 %)       7 (19.7 %)
         8 (4.3 %)       9 (3.3 %)      10 (6.9 %)      11 (100.0 %)
        Total: 292.5%
Initial condition solution time: CPU = 5.178 ms, elapsed = 6.59204 ms.
Intrinsic tran analysis time:    CPU = 215.837 ms, elapsed = 1.00186 s.
Opening mt file:  /CASNFSHOME2/home/sstatthoudakis/Documents/spectre/Gates/NOR2/nor_validate/corners/corner_pin2/wire_load/nor_ff.mt3
Total time required for tran analysis `transient4': CPU = 224.656 ms, elapsed = 1.02604 s, util. = 21.9%.
Time accumulated: CPU = 1.76329 s, elapsed = 5.48837 s.
Peak resident memory used = 141 Mbytes.


*************************
Alter Group `altergroup4'
*************************
Time for altergroup4: CPU = 8.396 ms, elapsed = 8.72993 ms.
Time accumulated: CPU = 1.77181 s, elapsed = 5.49838 s.
Peak resident memory used = 141 Mbytes.


*****************************************************
Transient Analysis `transient5': time = (0 s -> 2 ns)
*****************************************************

Notice from spectre during IC analysis `timeSweep_cloned_4', during transient analysis `transient5'.
    GminDC = 1 pS is large enough to noticeably affect the DC solution.
        dV(nor8.net16) = 252.794 uV
        Use the `gmin_check' option to eliminate or expand this report.

DC simulation time: CPU = 3.334 ms, elapsed = 4.498 ms.

Notice from spectre during transient analysis `transient5'.
    No outputs were found. Loosening output filter criterion to `allpub'.


Opening the PSFXL file ./nor_ff.raw/transient5.tran.tran ...
Important parameter values:
    start = 0 s
    outputstart = 0 s
    stop = 2 ns
    step = 100 fs
    maxstep = 40 ps
    ic = all
    useprevic = no
    skipdc = no
    reltol = 1e-03
    abstol(V) = 1 uV
    abstol(I) = 1 pA
    temp = 50 C
    tnom = 27 C
    tempeffects = all
    errpreset = moderate
    method = traponly
    lteratio = 3.5
    relref = sigglobal
    cmin = 0 F
    gmin = 1 pS


Output and IC/nodeset summary:
                 probe  2       
                 save   3       (current)
                 save   165     (voltage)

......9......8......7......6......

Notice from spectre at time = 998.361 ps during transient analysis `transient5'.
    Found trapezoidal ringing on node VVDD:p.

......9......8......7......6......5

Notice from spectre at time = 1.03836 ns during transient analysis `transient5'.
    Found trapezoidal ringing on node VGND:p.

......9......8......7......6......5.

Notice from spectre at time = 1.07836 ns during transient analysis `transient5'.
    Found trapezoidal ringing on node VVDD:p.

......9......8......7......6......5...

Notice from spectre at time = 1.11836 ns during transient analysis `transient5'.
    Found trapezoidal ringing on node VGND:p.

......9......8......7......6......5....

Notice from spectre at time = 1.155 ns during transient analysis `transient5'.
    Found trapezoidal ringing on node VVDD:p.
        Further occurrences of this notice will be suppressed.

......9......8......7......6......5......4......3......2......1......0
Number of accepted tran steps =             256

Notice from spectre during transient analysis `transient5'.
    Trapezoidal ringing is detected during tran analysis.
        Please use method=trap for better results and performance.


Maximum value achieved for any signal of each quantity: 
V: V(nor10.2:Q) = 1.015 V
I: I(VGND:p) = 68.12 uA
If your circuit contains signals of the same quantity that are vastly different in size (such as high voltage circuitry combined with low voltage control circuitry), you should consider specifying global option `bin_relref=yes'.

~~~~~~~~~~~~~~~~~~~~~~~~~~~~~~~~~
Post-Transient Simulation Summary
~~~~~~~~~~~~~~~~~~~~~~~~~~~~~~~~~
   -   To further speed up simulation, consider
          add ++aps on command line
~~~~~~~~~~~~~~~~~~~~~~~~~~~~~~~~~


During simulation, the CPU load for active processors is :
         0 (6.8 %)       1 (18.2 %)      2 (8.0 %)       3 (100.0 %)
         4 (15.9 %)      5 (4.5 %)       6 (6.5 %)       7 (18.1 %)
         8 (5.2 %)       9 (3.1 %)      10 (6.5 %)      11 (100.0 %)
        Total: 292.9%
Initial condition solution time: CPU = 3.4 ms, elapsed = 4.89116 ms.
Intrinsic tran analysis time:    CPU = 196.853 ms, elapsed = 313.1 ms.
Opening mt file:  /CASNFSHOME2/home/sstatthoudakis/Documents/spectre/Gates/NOR2/nor_validate/corners/corner_pin2/wire_load/nor_ff.mt4
Total time required for tran analysis `transient5': CPU = 205.331 ms, elapsed = 375.159 ms, util. = 54.7%.
Time accumulated: CPU = 1.98248 s, elapsed = 5.91024 s.
Peak resident memory used = 141 Mbytes.


*************************
Alter Group `altergroup5'
*************************
Time for altergroup5: CPU = 6.912 ms, elapsed = 7.15518 ms.
Time accumulated: CPU = 1.98952 s, elapsed = 5.91857 s.
Peak resident memory used = 141 Mbytes.


*****************************************************
Transient Analysis `transient6': time = (0 s -> 2 ns)
*****************************************************
DC simulation time: CPU = 3.176 ms, elapsed = 3.17788 ms.

Notice from spectre during transient analysis `transient6'.
    No outputs were found. Loosening output filter criterion to `allpub'.


Opening the PSFXL file ./nor_ff.raw/transient6.tran.tran ...
Important parameter values:
    start = 0 s
    outputstart = 0 s
    stop = 2 ns
    step = 100 fs
    maxstep = 40 ps
    ic = all
    useprevic = no
    skipdc = no
    reltol = 1e-03
    abstol(V) = 1 uV
    abstol(I) = 1 pA
    temp = 125 C
    tnom = 27 C
    tempeffects = all
    errpreset = moderate
    method = traponly
    lteratio = 3.5
    relref = sigglobal
    cmin = 0 F
    gmin = 1 pS


Output and IC/nodeset summary:
                 probe  2       
                 save   3       (current)
                 save   165     (voltage)

......9......8.

Notice from spectre at time = 430.572 ps during transient analysis `transient6'.
    Found trapezoidal ringing on node nor6.3:A.

......9......8......7......6......5.

Notice from spectre at time = 1.08221 ns during transient analysis `transient6'.
    Found trapezoidal ringing on node VGND:p.

......9......8......7......6......5...

Notice from spectre at time = 1.12221 ns during transient analysis `transient6'.
    Found trapezoidal ringing on node VGND:p.

......9......8......7......6......5....

Notice from spectre at time = 1.155 ns during transient analysis `transient6'.
    Found trapezoidal ringing on node VGND:p.

......9......8......7......6......5......4......3......2......1......0
Number of accepted tran steps =             245

Notice from spectre during transient analysis `transient6'.
    Trapezoidal ringing is detected during tran analysis.
        Please use method=trap for better results and performance.


Maximum value achieved for any signal of each quantity: 
V: V(nor10.net16) = 1.01 V
I: I(VGND:p) = 66.03 uA
If your circuit contains signals of the same quantity that are vastly different in size (such as high voltage circuitry combined with low voltage control circuitry), you should consider specifying global option `bin_relref=yes'.

~~~~~~~~~~~~~~~~~~~~~~~~~~~~~~~~~
Post-Transient Simulation Summary
~~~~~~~~~~~~~~~~~~~~~~~~~~~~~~~~~
   -   To further speed up simulation, consider
          add ++aps on command line
~~~~~~~~~~~~~~~~~~~~~~~~~~~~~~~~~


During simulation, the CPU load for active processors is :
         0 (8.5 %)       1 (17.2 %)      2 (9.7 %)       3 (100.0 %)
         4 (15.0 %)      5 (5.6 %)       6 (9.6 %)       7 (18.7 %)
         8 (6.0 %)       9 (3.4 %)      10 (8.3 %)      11 (100.0 %)
        Total: 301.9%
Initial condition solution time: CPU = 3.24 ms, elapsed = 3.7241 ms.
Intrinsic tran analysis time:    CPU = 192.803 ms, elapsed = 286.551 ms.
Opening mt file:  /CASNFSHOME2/home/sstatthoudakis/Documents/spectre/Gates/NOR2/nor_validate/corners/corner_pin2/wire_load/nor_ff.mt5
Total time required for tran analysis `transient6': CPU = 199.021 ms, elapsed = 305.547 ms, util. = 65.1%.
Time accumulated: CPU = 2.19378 s, elapsed = 6.25781 s.
Peak resident memory used = 141 Mbytes.


*************************
Alter Group `altergroup6'
*************************
Time for altergroup6: CPU = 8.41 ms, elapsed = 8.84199 ms.
Time accumulated: CPU = 2.20232 s, elapsed = 6.26834 s.
Peak resident memory used = 141 Mbytes.


*****************************************************
Transient Analysis `transient7': time = (0 s -> 2 ns)
*****************************************************

Notice from spectre during IC analysis `timeSweep_cloned_6', during transient analysis `transient7'.
    GminDC = 1 pS is large enough to noticeably affect the DC solution.
        dV(nor10.net16) = 1.99708 mV
        Use the `gmin_check' option to eliminate or expand this report.

DC simulation time: CPU = 3.938 ms, elapsed = 5.26905 ms.

Notice from spectre during transient analysis `transient7'.
    No outputs were found. Loosening output filter criterion to `allpub'.


Opening the PSFXL file ./nor_ff.raw/transient7.tran.tran ...
Important parameter values:
    start = 0 s
    outputstart = 0 s
    stop = 2 ns
    step = 100 fs
    maxstep = 40 ps
    ic = all
    useprevic = no
    skipdc = no
    reltol = 1e-03
    abstol(V) = 1 uV
    abstol(I) = 1 pA
    temp = 0 C
    tnom = 27 C
    tempeffects = all
    errpreset = moderate
    method = traponly
    lteratio = 3.5
    relref = sigglobal
    cmin = 0 F
    gmin = 1 pS


Output and IC/nodeset summary:
                 probe  2       
                 save   3       (current)
                 save   165     (voltage)

......9......8......7......6......

Notice from spectre at time = 1.01869 ns during transient analysis `transient7'.
    Found trapezoidal ringing on node VGND:p.

......9......8......7......6......5.

Notice from spectre at time = 1.05869 ns during transient analysis `transient7'.
    Found trapezoidal ringing on node VVDD:p.

......9......8......7......6......5..

Notice from spectre at time = 1.09869 ns during transient analysis `transient7'.
    Found trapezoidal ringing on node VGND:p.

......9......8......7......6......5...

Notice from spectre at time = 1.12685 ns during transient analysis `transient7'.
    Found trapezoidal ringing on node nor10.3:A.

......9......8......7......6......5....

Notice from spectre at time = 1.155 ns during transient analysis `transient7'.
    Found trapezoidal ringing on node nor10.3:A.
        Further occurrences of this notice will be suppressed.

......9......8......7......6......5......4......3......2......1......0
Number of accepted tran steps =             263

Notice from spectre during transient analysis `transient7'.
    Trapezoidal ringing is detected during tran analysis.
        Please use method=trap for better results and performance.


Maximum value achieved for any signal of each quantity: 
V: V(nor10.net16) = 1.031 V
I: I(VGND:p) = 72.54 uA
If your circuit contains signals of the same quantity that are vastly different in size (such as high voltage circuitry combined with low voltage control circuitry), you should consider specifying global option `bin_relref=yes'.

~~~~~~~~~~~~~~~~~~~~~~~~~~~~~~~~~
Post-Transient Simulation Summary
~~~~~~~~~~~~~~~~~~~~~~~~~~~~~~~~~
   -   To further speed up simulation, consider
          add ++aps on command line
~~~~~~~~~~~~~~~~~~~~~~~~~~~~~~~~~


During simulation, the CPU load for active processors is :
         0 (10.9 %)      1 (17.8 %)      2 (9.0 %)       3 (100.0 %)
         4 (14.0 %)      5 (5.3 %)       6 (9.4 %)       7 (17.4 %)
         8 (5.8 %)       9 (3.3 %)      10 (7.6 %)      11 (100.0 %)
        Total: 300.4%
Initial condition solution time: CPU = 4.102 ms, elapsed = 5.79405 ms.
Intrinsic tran analysis time:    CPU = 228.872 ms, elapsed = 506.575 ms.
Opening mt file:  /CASNFSHOME2/home/sstatthoudakis/Documents/spectre/Gates/NOR2/nor_validate/corners/corner_pin2/wire_load/nor_ff.mt6
Total time required for tran analysis `transient7': CPU = 237.318 ms, elapsed = 570.348 ms, util. = 41.6%.
Time accumulated: CPU = 2.45132 s, elapsed = 6.99439 s.
Peak resident memory used = 141 Mbytes.


*************************
Alter Group `altergroup7'
*************************
Time for altergroup7: CPU = 17.438 ms, elapsed = 18.0321 ms.
Time accumulated: CPU = 2.46911 s, elapsed = 7.01952 s.
Peak resident memory used = 141 Mbytes.


*****************************************************
Transient Analysis `transient8': time = (0 s -> 2 ns)
*****************************************************

Notice from spectre during IC analysis `timeSweep_cloned_7', during transient analysis `transient8'.
    GminDC = 1 pS is large enough to noticeably affect the DC solution.
        dV(nor4.net16) = 252.576 uV
        Use the `gmin_check' option to eliminate or expand this report.

DC simulation time: CPU = 7.684 ms, elapsed = 13.396 ms.

Notice from spectre during transient analysis `transient8'.
    No outputs were found. Loosening output filter criterion to `allpub'.


Opening the PSFXL file ./nor_ff.raw/transient8.tran.tran ...
Important parameter values:
    start = 0 s
    outputstart = 0 s
    stop = 2 ns
    step = 100 fs
    maxstep = 40 ps
    ic = all
    useprevic = no
    skipdc = no
    reltol = 1e-03
    abstol(V) = 1 uV
    abstol(I) = 1 pA
    temp = 50 C
    tnom = 27 C
    tempeffects = all
    errpreset = moderate
    method = traponly
    lteratio = 3.5
    relref = sigglobal
    cmin = 0 F
    gmin = 1 pS


Output and IC/nodeset summary:
                 probe  2       
                 save   3       (current)
                 save   165     (voltage)

......9......8......7......6......5..

Notice from spectre at time = 1.10337 ns during transient analysis `transient8'.
    Found trapezoidal ringing on node nor10.3:A.

......9......8......7......6......5....

Notice from spectre at time = 1.12918 ns during transient analysis `transient8'.
    Found trapezoidal ringing on node nor10.3:A.

......9......8......7......6......5.....

Notice from spectre at time = 1.155 ns during transient analysis `transient8'.
    Found trapezoidal ringing on node nor10.3:A.

......9......8......7......6......5......4......3......2......1......0
Number of accepted tran steps =             256

Notice from spectre during transient analysis `transient8'.
    Trapezoidal ringing is detected during tran analysis.
        Please use method=trap for better results and performance.


Maximum value achieved for any signal of each quantity: 
V: V(nor10.2:Q) = 1.025 V
I: I(VGND:p) = 69.55 uA
If your circuit contains signals of the same quantity that are vastly different in size (such as high voltage circuitry combined with low voltage control circuitry), you should consider specifying global option `bin_relref=yes'.

~~~~~~~~~~~~~~~~~~~~~~~~~~~~~~~~~
Post-Transient Simulation Summary
~~~~~~~~~~~~~~~~~~~~~~~~~~~~~~~~~
   -   To further speed up simulation, consider
          add ++aps on command line
~~~~~~~~~~~~~~~~~~~~~~~~~~~~~~~~~


During simulation, the CPU load for active processors is :
         0 (11.7 %)      1 (16.6 %)      2 (8.0 %)       3 (100.0 %)
         4 (12.4 %)      5 (4.9 %)       6 (8.6 %)       7 (15.6 %)
         8 (5.3 %)       9 (3.1 %)      10 (8.1 %)      11 (100.0 %)
        Total: 294.2%
Initial condition solution time: CPU = 7.788 ms, elapsed = 13.762 ms.
Intrinsic tran analysis time:    CPU = 221.489 ms, elapsed = 628.091 ms.
Opening mt file:  /CASNFSHOME2/home/sstatthoudakis/Documents/spectre/Gates/NOR2/nor_validate/corners/corner_pin2/wire_load/nor_ff.mt7
Total time required for tran analysis `transient8': CPU = 234.154 ms, elapsed = 691.243 ms, util. = 33.9%.
Time accumulated: CPU = 2.71826 s, elapsed = 7.76597 s.
Peak resident memory used = 141 Mbytes.


*************************
Alter Group `altergroup8'
*************************
Time for altergroup8: CPU = 13.223 ms, elapsed = 13.618 ms.
Time accumulated: CPU = 2.73181 s, elapsed = 7.78153 s.
Peak resident memory used = 141 Mbytes.


*****************************************************
Transient Analysis `transient9': time = (0 s -> 2 ns)
*****************************************************
DC simulation time: CPU = 3.18 ms, elapsed = 3.18098 ms.

Notice from spectre during transient analysis `transient9'.
    No outputs were found. Loosening output filter criterion to `allpub'.


Opening the PSFXL file ./nor_ff.raw/transient9.tran.tran ...
Important parameter values:
    start = 0 s
    outputstart = 0 s
    stop = 2 ns
    step = 100 fs
    maxstep = 40 ps
    ic = all
    useprevic = no
    skipdc = no
    reltol = 1e-03
    abstol(V) = 1 uV
    abstol(I) = 1 pA
    temp = 125 C
    tnom = 27 C
    tempeffects = all
    errpreset = moderate
    method = traponly
    lteratio = 3.5
    relref = sigglobal
    cmin = 0 F
    gmin = 1 pS


Output and IC/nodeset summary:
                 probe  2       
                 save   3       (current)
                 save   165     (voltage)

......9......8.

Notice from spectre at time = 424.406 ps during transient analysis `transient9'.
    Found trapezoidal ringing on node nor6.3:A.

......9......8......7......6....

Notice from spectre at time = 962.125 ps during transient analysis `transient9'.
    Found trapezoidal ringing on node VVDD:p.

......9......8......7......6......

Notice from spectre at time = 1.00212 ns during transient analysis `transient9'.
    Found trapezoidal ringing on node VVDD:p.

......9......8......7......6......5

Notice from spectre at time = 1.04212 ns during transient analysis `transient9'.
    Found trapezoidal ringing on node VVDD:p.

......9......8......7......6......5.

Notice from spectre at time = 1.08212 ns during transient analysis `transient9'.
    Found trapezoidal ringing on node VVDD:p.
        Further occurrences of this notice will be suppressed.

......9......8......7......6......5......4......3......2......1......0
Number of accepted tran steps =             245

Notice from spectre during transient analysis `transient9'.
    Trapezoidal ringing is detected during tran analysis.
        Please use method=trap for better results and performance.


Maximum value achieved for any signal of each quantity: 
V: V(nor10.net16) = 1.02 V
I: I(VGND:p) = 67.44 uA
If your circuit contains signals of the same quantity that are vastly different in size (such as high voltage circuitry combined with low voltage control circuitry), you should consider specifying global option `bin_relref=yes'.

~~~~~~~~~~~~~~~~~~~~~~~~~~~~~~~~~
Post-Transient Simulation Summary
~~~~~~~~~~~~~~~~~~~~~~~~~~~~~~~~~
   -   To further speed up simulation, consider
          add ++aps on command line
~~~~~~~~~~~~~~~~~~~~~~~~~~~~~~~~~


During simulation, the CPU load for active processors is :
         0 (11.1 %)      1 (18.2 %)      2 (8.1 %)       3 (100.0 %)
         4 (11.9 %)      5 (4.8 %)       6 (8.2 %)       7 (14.8 %)
         8 (5.0 %)       9 (3.0 %)      10 (10.6 %)     11 (100.0 %)
        Total: 295.5%
Initial condition solution time: CPU = 3.244 ms, elapsed = 3.68595 ms.
Intrinsic tran analysis time:    CPU = 182.977 ms, elapsed = 286.463 ms.
Opening mt file:  /CASNFSHOME2/home/sstatthoudakis/Documents/spectre/Gates/NOR2/nor_validate/corners/corner_pin2/wire_load/nor_ff.mt8
Total time required for tran analysis `transient9': CPU = 191.277 ms, elapsed = 309.826 ms, util. = 61.7%.
Time accumulated: CPU = 2.93279 s, elapsed = 8.13916 s.
Peak resident memory used = 141 Mbytes.


Notice from spectre.
    2 notices suppressed.


*************************
Alter Group `altergroup9'
*************************
Time for altergroup9: CPU = 10.152 ms, elapsed = 11.6022 ms.
Time accumulated: CPU = 2.94325 s, elapsed = 8.1527 s.
Peak resident memory used = 141 Mbytes.


******************************************************
Transient Analysis `transient10': time = (0 s -> 2 ns)
******************************************************

Notice from spectre during IC analysis `timeSweep_cloned_9', during transient analysis `transient10'.
    GminDC = 1 pS is large enough to noticeably affect the DC solution.
        dV(nor10.net16) = 1.995 mV
        Use the `gmin_check' option to eliminate or expand this report.

DC simulation time: CPU = 3.963 ms, elapsed = 5.90801 ms.

Notice from spectre during transient analysis `transient10'.
    No outputs were found. Loosening output filter criterion to `allpub'.


Opening the PSFXL file ./nor_ff.raw/transient10.tran.tran ...
Important parameter values:
    start = 0 s
    outputstart = 0 s
    stop = 2 ns
    step = 100 fs
    maxstep = 40 ps
    ic = all
    useprevic = no
    skipdc = no
    reltol = 1e-03
    abstol(V) = 1 uV
    abstol(I) = 1 pA
    temp = 0 C
    tnom = 27 C
    tempeffects = all
    errpreset = moderate
    method = traponly
    lteratio = 3.5
    relref = sigglobal
    cmin = 0 F
    gmin = 1 pS


Output and IC/nodeset summary:
                 probe  2       
                 save   3       (current)
                 save   165     (voltage)

......9......8......7......6...

Notice from spectre at time = 915.638 ps during transient analysis `transient10'.
    Found trapezoidal ringing on node VVDD:p.

......9......8......7......6....

Notice from spectre at time = 955.638 ps during transient analysis `transient10'.
    Found trapezoidal ringing on node VGND:p.

......9......8......7......6.....

Notice from spectre at time = 995.638 ps during transient analysis `transient10'.
    Found trapezoidal ringing on node VVDD:p.

......9......8......7......6......5

Notice from spectre at time = 1.03564 ns during transient analysis `transient10'.
    Found trapezoidal ringing on node VGND:p.

......9......8......7......6......5.

Notice from spectre at time = 1.07564 ns during transient analysis `transient10'.
    Found trapezoidal ringing on node VVDD:p.
        Further occurrences of this notice will be suppressed.

......9......8......7......6......5......4......3......2......1......0
Number of accepted tran steps =             260

Notice from spectre during transient analysis `transient10'.
    Trapezoidal ringing is detected during tran analysis.
        Please use method=trap for better results and performance.


Maximum value achieved for any signal of each quantity: 
V: V(nor10.net16) = 1.041 V
I: I(VGND:p) = 74.11 uA
If your circuit contains signals of the same quantity that are vastly different in size (such as high voltage circuitry combined with low voltage control circuitry), you should consider specifying global option `bin_relref=yes'.

~~~~~~~~~~~~~~~~~~~~~~~~~~~~~~~~~
Post-Transient Simulation Summary
~~~~~~~~~~~~~~~~~~~~~~~~~~~~~~~~~
   -   To further speed up simulation, consider
          add ++aps on command line
~~~~~~~~~~~~~~~~~~~~~~~~~~~~~~~~~


During simulation, the CPU load for active processors is :
         0 (10.5 %)      1 (17.4 %)      2 (7.8 %)       3 (100.0 %)
         4 (11.4 %)      5 (4.7 %)       6 (8.0 %)       7 (14.0 %)
         8 (4.9 %)       9 (3.1 %)      10 (12.5 %)     11 (100.0 %)
        Total: 294.2%
Initial condition solution time: CPU = 4.01 ms, elapsed = 6.34599 ms.
Intrinsic tran analysis time:    CPU = 194.07 ms, elapsed = 328.877 ms.
Opening mt file:  /CASNFSHOME2/home/sstatthoudakis/Documents/spectre/Gates/NOR2/nor_validate/corners/corner_pin2/wire_load/nor_ff.mt9
Total time required for tran analysis `transient10': CPU = 202.203 ms, elapsed = 355.728 ms, util. = 56.8%.
Time accumulated: CPU = 3.1532 s, elapsed = 8.55537 s.
Peak resident memory used = 141 Mbytes.


Notice from spectre.
    2 notices suppressed.


**************************
Alter Group `altergroup10'
**************************
Time for altergroup10: CPU = 16.771 ms, elapsed = 18.0428 ms.
Time accumulated: CPU = 3.17033 s, elapsed = 8.57541 s.
Peak resident memory used = 141 Mbytes.


******************************************************
Transient Analysis `transient11': time = (0 s -> 2 ns)
******************************************************

Notice from spectre during IC analysis `timeSweep_cloned_10', during transient analysis `transient11'.
    GminDC = 1 pS is large enough to noticeably affect the DC solution.
        dV(nor6.net16) = 253.709 uV
        Use the `gmin_check' option to eliminate or expand this report.

DC simulation time: CPU = 3.566 ms, elapsed = 5.37801 ms.

Notice from spectre during transient analysis `transient11'.
    No outputs were found. Loosening output filter criterion to `allpub'.


Opening the PSFXL file ./nor_ff.raw/transient11.tran.tran ...
Important parameter values:
    start = 0 s
    outputstart = 0 s
    stop = 2 ns
    step = 100 fs
    maxstep = 40 ps
    ic = all
    useprevic = no
    skipdc = no
    reltol = 1e-03
    abstol(V) = 1 uV
    abstol(I) = 1 pA
    temp = 50 C
    tnom = 27 C
    tempeffects = all
    errpreset = moderate
    method = traponly
    lteratio = 3.5
    relref = sigglobal
    cmin = 0 F
    gmin = 1 pS


Output and IC/nodeset summary:
                 probe  2       
                 save   3       (current)
                 save   165     (voltage)

......9......8......7......6...

Notice from spectre at time = 923.568 ps during transient analysis `transient11'.
    Found trapezoidal ringing on node VGND:p.

......9......8......7......6....

Notice from spectre at time = 963.568 ps during transient analysis `transient11'.
    Found trapezoidal ringing on node VGND:p.

......9......8......7......6......

Notice from spectre at time = 1.00357 ns during transient analysis `transient11'.
    Found trapezoidal ringing on node VGND:p.

......9......8......7......6......5

Notice from spectre at time = 1.04357 ns during transient analysis `transient11'.
    Found trapezoidal ringing on node VGND:p.

......9......8......7......6......5..

Notice from spectre at time = 1.08357 ns during transient analysis `transient11'.
    Found trapezoidal ringing on node VGND:p.
        Further occurrences of this notice will be suppressed.

......9......8......7......6......5......4......3......2......1......0
Number of accepted tran steps =             250

Notice from spectre during transient analysis `transient11'.
    Trapezoidal ringing is detected during tran analysis.
        Please use method=trap for better results and performance.


Maximum value achieved for any signal of each quantity: 
V: V(nor10.2:Q) = 1.036 V
I: I(VGND:p) = 71.3 uA
If your circuit contains signals of the same quantity that are vastly different in size (such as high voltage circuitry combined with low voltage control circuitry), you should consider specifying global option `bin_relref=yes'.

~~~~~~~~~~~~~~~~~~~~~~~~~~~~~~~~~
Post-Transient Simulation Summary
~~~~~~~~~~~~~~~~~~~~~~~~~~~~~~~~~
   -   To further speed up simulation, consider
          add ++aps on command line
~~~~~~~~~~~~~~~~~~~~~~~~~~~~~~~~~


During simulation, the CPU load for active processors is :
         0 (10.0 %)      1 (16.6 %)      2 (7.4 %)       3 (100.0 %)
         4 (10.8 %)      5 (4.6 %)       6 (7.7 %)       7 (13.6 %)
         8 (4.6 %)       9 (3.0 %)      10 (14.3 %)     11 (100.0 %)
        Total: 292.7%
Initial condition solution time: CPU = 3.623 ms, elapsed = 5.88894 ms.
Intrinsic tran analysis time:    CPU = 185.499 ms, elapsed = 327.34 ms.
Opening mt file:  /CASNFSHOME2/home/sstatthoudakis/Documents/spectre/Gates/NOR2/nor_validate/corners/corner_pin2/wire_load/nor_ff.mt10
Total time required for tran analysis `transient11': CPU = 194.251 ms, elapsed = 355.312 ms, util. = 54.7%.
Time accumulated: CPU = 3.37183 s, elapsed = 8.97871 s.
Peak resident memory used = 141 Mbytes.


Notice from spectre.
    2 notices suppressed.


**************************
Alter Group `altergroup11'
**************************
Time for altergroup11: CPU = 10.441 ms, elapsed = 11.647 ms.
Time accumulated: CPU = 3.3826 s, elapsed = 8.99229 s.
Peak resident memory used = 141 Mbytes.


******************************************************
Transient Analysis `transient12': time = (0 s -> 2 ns)
******************************************************
DC simulation time: CPU = 3.155 ms, elapsed = 3.1569 ms.

Notice from spectre during transient analysis `transient12'.
    No outputs were found. Loosening output filter criterion to `allpub'.


Opening the PSFXL file ./nor_ff.raw/transient12.tran.tran ...
Important parameter values:
    start = 0 s
    outputstart = 0 s
    stop = 2 ns
    step = 100 fs
    maxstep = 40 ps
    ic = all
    useprevic = no
    skipdc = no
    reltol = 1e-03
    abstol(V) = 1 uV
    abstol(I) = 1 pA
    temp = 125 C
    tnom = 27 C
    tempeffects = all
    errpreset = moderate
    method = traponly
    lteratio = 3.5
    relref = sigglobal
    cmin = 0 F
    gmin = 1 pS


Output and IC/nodeset summary:
                 probe  2       
                 save   3       (current)
                 save   165     (voltage)

......9......8......7......6......

Notice from spectre at time = 1.00101 ns during transient analysis `transient12'.
    Found trapezoidal ringing on node VVDD:p.

......9......8......7......6......5

Notice from spectre at time = 1.04101 ns during transient analysis `transient12'.
    Found trapezoidal ringing on node VGND:p.

......9......8......7......6......5.

Notice from spectre at time = 1.08101 ns during transient analysis `transient12'.
    Found trapezoidal ringing on node VVDD:p.

......9......8......7......6......5...

Notice from spectre at time = 1.12101 ns during transient analysis `transient12'.
    Found trapezoidal ringing on node VGND:p.

......9......8......7......6......5....

Notice from spectre at time = 1.155 ns during transient analysis `transient12'.
    Found trapezoidal ringing on node VVDD:p.
        Further occurrences of this notice will be suppressed.

......9......8......7......6......5......4......3......2......1......0
Number of accepted tran steps =             250

Notice from spectre during transient analysis `transient12'.
    Trapezoidal ringing is detected during tran analysis.
        Please use method=trap for better results and performance.


Maximum value achieved for any signal of each quantity: 
V: V(nor10.net16) = 1.03 V
I: I(VGND:p) = 68.86 uA
If your circuit contains signals of the same quantity that are vastly different in size (such as high voltage circuitry combined with low voltage control circuitry), you should consider specifying global option `bin_relref=yes'.

~~~~~~~~~~~~~~~~~~~~~~~~~~~~~~~~~
Post-Transient Simulation Summary
~~~~~~~~~~~~~~~~~~~~~~~~~~~~~~~~~
   -   To further speed up simulation, consider
          add ++aps on command line
~~~~~~~~~~~~~~~~~~~~~~~~~~~~~~~~~


During simulation, the CPU load for active processors is :
         0 (9.9 %)       1 (17.0 %)      2 (7.1 %)       3 (100.0 %)
         4 (10.4 %)      5 (4.4 %)       6 (7.4 %)       7 (13.0 %)
         8 (4.4 %)       9 (3.0 %)      10 (16.1 %)     11 (100.0 %)
        Total: 292.7%
Initial condition solution time: CPU = 3.223 ms, elapsed = 3.91102 ms.
Intrinsic tran analysis time:    CPU = 198.2 ms, elapsed = 347.61 ms.
Opening mt file:  /CASNFSHOME2/home/sstatthoudakis/Documents/spectre/Gates/NOR2/nor_validate/corners/corner_pin2/wire_load/nor_ff.mt11
Total time required for tran analysis `transient12': CPU = 205.545 ms, elapsed = 371.954 ms, util. = 55.3%.
Time accumulated: CPU = 3.59781 s, elapsed = 9.4168 s.
Peak resident memory used = 141 Mbytes.


**************************
Alter Group `altergroup12'
**************************
Time for altergroup12: CPU = 8.266 ms, elapsed = 8.91805 ms.
Time accumulated: CPU = 3.60621 s, elapsed = 9.42739 s.
Peak resident memory used = 141 Mbytes.


******************************************************
Transient Analysis `transient13': time = (0 s -> 2 ns)
******************************************************

Notice from spectre during IC analysis `timeSweep_cloned_12', during transient analysis `transient13'.
    GminDC = 1 pS is large enough to noticeably affect the DC solution.
        dV(nor6.net16) = 1.99405 mV
        Use the `gmin_check' option to eliminate or expand this report.

DC simulation time: CPU = 4.236 ms, elapsed = 5.92113 ms.

Notice from spectre during transient analysis `transient13'.
    No outputs were found. Loosening output filter criterion to `allpub'.


Opening the PSFXL file ./nor_ff.raw/transient13.tran.tran ...
Important parameter values:
    start = 0 s
    outputstart = 0 s
    stop = 2 ns
    step = 100 fs
    maxstep = 40 ps
    ic = all
    useprevic = no
    skipdc = no
    reltol = 1e-03
    abstol(V) = 1 uV
    abstol(I) = 1 pA
    temp = 0 C
    tnom = 27 C
    tempeffects = all
    errpreset = moderate
    method = traponly
    lteratio = 3.5
    relref = sigglobal
    cmin = 0 F
    gmin = 1 pS


Output and IC/nodeset summary:
                 probe  2       
                 save   3       (current)
                 save   165     (voltage)

......9......8......7......6...

Notice from spectre at time = 915.263 ps during transient analysis `transient13'.
    Found trapezoidal ringing on node VGND:p.

......9......8......7......6....

Notice from spectre at time = 955.263 ps during transient analysis `transient13'.
    Found trapezoidal ringing on node VGND:p.

......9......8......7......6.....

Notice from spectre at time = 995.263 ps during transient analysis `transient13'.
    Found trapezoidal ringing on node VGND:p.

......9......8......7......6......5

Notice from spectre at time = 1.03526 ns during transient analysis `transient13'.
    Found trapezoidal ringing on node VGND:p.

......9......8......7......6......5.

Notice from spectre at time = 1.07526 ns during transient analysis `transient13'.
    Found trapezoidal ringing on node VGND:p.
        Further occurrences of this notice will be suppressed.

......9......8......7......6......5......4......3......2......1......0
Number of accepted tran steps =             253

Notice from spectre during transient analysis `transient13'.
    Trapezoidal ringing is detected during tran analysis.
        Please use method=trap for better results and performance.


Maximum value achieved for any signal of each quantity: 
V: V(nor10.net16) = 1.052 V
I: I(VGND:p) = 75.47 uA
If your circuit contains signals of the same quantity that are vastly different in size (such as high voltage circuitry combined with low voltage control circuitry), you should consider specifying global option `bin_relref=yes'.

~~~~~~~~~~~~~~~~~~~~~~~~~~~~~~~~~
Post-Transient Simulation Summary
~~~~~~~~~~~~~~~~~~~~~~~~~~~~~~~~~
   -   To further speed up simulation, consider
          add ++aps on command line
~~~~~~~~~~~~~~~~~~~~~~~~~~~~~~~~~


During simulation, the CPU load for active processors is :
         0 (11.7 %)      1 (18.2 %)      2 (7.7 %)       3 (100.0 %)
         4 (10.5 %)      5 (4.6 %)       6 (7.7 %)       7 (12.8 %)
         8 (4.9 %)       9 (3.3 %)      10 (15.9 %)     11 (100.0 %)
        Total: 297.3%
Initial condition solution time: CPU = 4.291 ms, elapsed = 6.30784 ms.
Intrinsic tran analysis time:    CPU = 193.867 ms, elapsed = 315.493 ms.
Opening mt file:  /CASNFSHOME2/home/sstatthoudakis/Documents/spectre/Gates/NOR2/nor_validate/corners/corner_pin2/wire_load/nor_ff.mt12
Total time required for tran analysis `transient13': CPU = 201.867 ms, elapsed = 341.784 ms, util. = 59.1%.
Time accumulated: CPU = 3.81514 s, elapsed = 9.85763 s.
Peak resident memory used = 141 Mbytes.


Notice from spectre.
    2 notices suppressed.


**************************
Alter Group `altergroup13'
**************************
Time for altergroup13: CPU = 11.474 ms, elapsed = 12.7878 ms.
Time accumulated: CPU = 3.82692 s, elapsed = 9.87269 s.
Peak resident memory used = 141 Mbytes.


******************************************************
Transient Analysis `transient14': time = (0 s -> 2 ns)
******************************************************

Notice from spectre during IC analysis `timeSweep_cloned_13', during transient analysis `transient14'.
    GminDC = 1 pS is large enough to noticeably affect the DC solution.
        dV(nor6.net16) = 253.814 uV
        Use the `gmin_check' option to eliminate or expand this report.

DC simulation time: CPU = 4.123 ms, elapsed = 5.98693 ms.

Notice from spectre during transient analysis `transient14'.
    No outputs were found. Loosening output filter criterion to `allpub'.


Opening the PSFXL file ./nor_ff.raw/transient14.tran.tran ...
Important parameter values:
    start = 0 s
    outputstart = 0 s
    stop = 2 ns
    step = 100 fs
    maxstep = 40 ps
    ic = all
    useprevic = no
    skipdc = no
    reltol = 1e-03
    abstol(V) = 1 uV
    abstol(I) = 1 pA
    temp = 50 C
    tnom = 27 C
    tempeffects = all
    errpreset = moderate
    method = traponly
    lteratio = 3.5
    relref = sigglobal
    cmin = 0 F
    gmin = 1 pS


Output and IC/nodeset summary:
                 probe  2       
                 save   3       (current)
                 save   165     (voltage)

......9......8......7......6...

Notice from spectre at time = 915.372 ps during transient analysis `transient14'.
    Found trapezoidal ringing on node VGND:p.

......9......8......7......6....

Notice from spectre at time = 955.372 ps during transient analysis `transient14'.
    Found trapezoidal ringing on node VGND:p.

......9......8......7......6.....

Notice from spectre at time = 995.372 ps during transient analysis `transient14'.
    Found trapezoidal ringing on node VGND:p.

......9......8......7......6......5

Notice from spectre at time = 1.03537 ns during transient analysis `transient14'.
    Found trapezoidal ringing on node VGND:p.

......9......8......7......6......5.

Notice from spectre at time = 1.07537 ns during transient analysis `transient14'.
    Found trapezoidal ringing on node VGND:p.
        Further occurrences of this notice will be suppressed.

......9......8......7......6......5......4......3......2......1......0
Number of accepted tran steps =             250

Notice from spectre during transient analysis `transient14'.
    Trapezoidal ringing is detected during tran analysis.
        Please use method=trap for better results and performance.


Maximum value achieved for any signal of each quantity: 
V: V(nor10.2:Q) = 1.046 V
I: I(VGND:p) = 73.44 uA
If your circuit contains signals of the same quantity that are vastly different in size (such as high voltage circuitry combined with low voltage control circuitry), you should consider specifying global option `bin_relref=yes'.

~~~~~~~~~~~~~~~~~~~~~~~~~~~~~~~~~
Post-Transient Simulation Summary
~~~~~~~~~~~~~~~~~~~~~~~~~~~~~~~~~
   -   To further speed up simulation, consider
          add ++aps on command line
~~~~~~~~~~~~~~~~~~~~~~~~~~~~~~~~~


During simulation, the CPU load for active processors is :
         0 (11.3 %)      1 (17.5 %)      2 (7.5 %)       3 (100.0 %)
         4 (12.6 %)      5 (4.5 %)       6 (8.1 %)       7 (12.2 %)
         8 (5.0 %)       9 (3.6 %)      10 (15.3 %)     11 (100.0 %)
        Total: 297.7%
Initial condition solution time: CPU = 4.182 ms, elapsed = 6.37913 ms.
Intrinsic tran analysis time:    CPU = 202.907 ms, elapsed = 296.162 ms.
Opening mt file:  /CASNFSHOME2/home/sstatthoudakis/Documents/spectre/Gates/NOR2/nor_validate/corners/corner_pin2/wire_load/nor_ff.mt13
Total time required for tran analysis `transient14': CPU = 210.734 ms, elapsed = 319.473 ms, util. = 66%.
Time accumulated: CPU = 4.04296 s, elapsed = 10.2294 s.
Peak resident memory used = 141 Mbytes.


Notice from spectre.
    2 notices suppressed.


**************************
Alter Group `altergroup14'
**************************
Time for altergroup14: CPU = 6.97 ms, elapsed = 8.20303 ms.
Time accumulated: CPU = 4.05005 s, elapsed = 10.2394 s.
Peak resident memory used = 141 Mbytes.


******************************************************
Transient Analysis `transient15': time = (0 s -> 2 ns)
******************************************************
DC simulation time: CPU = 3.232 ms, elapsed = 3.232 ms.

Notice from spectre during transient analysis `transient15'.
    No outputs were found. Loosening output filter criterion to `allpub'.


Opening the PSFXL file ./nor_ff.raw/transient15.tran.tran ...
Important parameter values:
    start = 0 s
    outputstart = 0 s
    stop = 2 ns
    step = 100 fs
    maxstep = 40 ps
    ic = all
    useprevic = no
    skipdc = no
    reltol = 1e-03
    abstol(V) = 1 uV
    abstol(I) = 1 pA
    temp = 125 C
    tnom = 27 C
    tempeffects = all
    errpreset = moderate
    method = traponly
    lteratio = 3.5
    relref = sigglobal
    cmin = 0 F
    gmin = 1 pS


Output and IC/nodeset summary:
                 probe  2       
                 save   3       (current)
                 save   165     (voltage)

......9......8

Notice from spectre at time = 412.469 ps during transient analysis `transient15'.
    Found trapezoidal ringing on node nor6.3:A.

......9......8......7......6......5...

Notice from spectre at time = 1.1242 ns during transient analysis `transient15'.
    Found trapezoidal ringing on node nor10.3:A.

......9......8......7......6......5....

Notice from spectre at time = 1.155 ns during transient analysis `transient15'.
    Found trapezoidal ringing on node nor10.3:A.

......9......8......7......6......5......4......3......2......1......0
Number of accepted tran steps =             252

Notice from spectre during transient analysis `transient15'.
    Trapezoidal ringing is detected during tran analysis.
        Please use method=trap for better results and performance.


Maximum value achieved for any signal of each quantity: 
V: V(nor10.2:Q) = 1.04 V
I: I(VGND:p) = 70.31 uA
If your circuit contains signals of the same quantity that are vastly different in size (such as high voltage circuitry combined with low voltage control circuitry), you should consider specifying global option `bin_relref=yes'.

~~~~~~~~~~~~~~~~~~~~~~~~~~~~~~~~~
Post-Transient Simulation Summary
~~~~~~~~~~~~~~~~~~~~~~~~~~~~~~~~~
   -   To further speed up simulation, consider
          add ++aps on command line
~~~~~~~~~~~~~~~~~~~~~~~~~~~~~~~~~


During simulation, the CPU load for active processors is :
         0 (11.0 %)      1 (17.2 %)      2 (7.2 %)       3 (100.0 %)
         4 (12.8 %)      5 (4.6 %)       6 (9.7 %)       7 (11.9 %)
         8 (5.0 %)       9 (3.5 %)      10 (14.8 %)     11 (100.0 %)
        Total: 297.6%
Initial condition solution time: CPU = 3.298 ms, elapsed = 3.83496 ms.
Intrinsic tran analysis time:    CPU = 177.362 ms, elapsed = 301.741 ms.
Opening mt file:  /CASNFSHOME2/home/sstatthoudakis/Documents/spectre/Gates/NOR2/nor_validate/corners/corner_pin2/wire_load/nor_ff.mt14
Total time required for tran analysis `transient15': CPU = 183.751 ms, elapsed = 322.207 ms, util. = 57%.
Time accumulated: CPU = 4.23907 s, elapsed = 10.6043 s.
Peak resident memory used = 141 Mbytes.


**************************
Alter Group `altergroup15'
**************************
Time for altergroup15: CPU = 6.94 ms, elapsed = 7.39694 ms.
Time accumulated: CPU = 4.24612 s, elapsed = 10.6132 s.
Peak resident memory used = 141 Mbytes.


******************************************************
Transient Analysis `transient16': time = (0 s -> 2 ns)
******************************************************

Notice from spectre during IC analysis `timeSweep_cloned_15', during transient analysis `transient16'.
    GminDC = 1 pS is large enough to noticeably affect the DC solution.
        dV(nor10.net16) = 1.99191 mV
        Use the `gmin_check' option to eliminate or expand this report.

DC simulation time: CPU = 3.687 ms, elapsed = 4.987 ms.

Notice from spectre during transient analysis `transient16'.
    No outputs were found. Loosening output filter criterion to `allpub'.


Opening the PSFXL file ./nor_ff.raw/transient16.tran.tran ...
Important parameter values:
    start = 0 s
    outputstart = 0 s
    stop = 2 ns
    step = 100 fs
    maxstep = 40 ps
    ic = all
    useprevic = no
    skipdc = no
    reltol = 1e-03
    abstol(V) = 1 uV
    abstol(I) = 1 pA
    temp = 0 C
    tnom = 27 C
    tempeffects = all
    errpreset = moderate
    method = traponly
    lteratio = 3.5
    relref = sigglobal
    cmin = 0 F
    gmin = 1 pS


Output and IC/nodeset summary:
                 probe  2       
                 save   3       (current)
                 save   165     (voltage)

......9......8......7......6....

Notice from spectre at time = 941.844 ps during transient analysis `transient16'.
    Found trapezoidal ringing on node VGND:p.

......9......8......7......6.....

Notice from spectre at time = 981.844 ps during transient analysis `transient16'.
    Found trapezoidal ringing on node VGND:p.

......9......8......7......6......

Notice from spectre at time = 1.02184 ns during transient analysis `transient16'.
    Found trapezoidal ringing on node VGND:p.

......9......8......7......6......5.

Notice from spectre at time = 1.06184 ns during transient analysis `transient16'.
    Found trapezoidal ringing on node VGND:p.

......9......8......7......6......5..

Notice from spectre at time = 1.10184 ns during transient analysis `transient16'.
    Found trapezoidal ringing on node VGND:p.
        Further occurrences of this notice will be suppressed.

......9......8......7......6......5......4......3......2......1......0
Number of accepted tran steps =             255

Notice from spectre during transient analysis `transient16'.
    Trapezoidal ringing is detected during tran analysis.
        Please use method=trap for better results and performance.


Maximum value achieved for any signal of each quantity: 
V: V(nor10.net16) = 1.062 V
I: I(VGND:p) = 77.4 uA
If your circuit contains signals of the same quantity that are vastly different in size (such as high voltage circuitry combined with low voltage control circuitry), you should consider specifying global option `bin_relref=yes'.

~~~~~~~~~~~~~~~~~~~~~~~~~~~~~~~~~
Post-Transient Simulation Summary
~~~~~~~~~~~~~~~~~~~~~~~~~~~~~~~~~
   -   To further speed up simulation, consider
          add ++aps on command line
~~~~~~~~~~~~~~~~~~~~~~~~~~~~~~~~~


During simulation, the CPU load for active processors is :
         0 (10.7 %)      1 (16.8 %)      2 (7.1 %)       3 (100.0 %)
         4 (12.4 %)      5 (4.5 %)       6 (11.3 %)      7 (11.5 %)
         8 (4.9 %)       9 (3.5 %)      10 (14.4 %)     11 (100.0 %)
        Total: 296.9%
Initial condition solution time: CPU = 3.731 ms, elapsed = 5.35321 ms.
Intrinsic tran analysis time:    CPU = 180.045 ms, elapsed = 294.31 ms.
Opening mt file:  /CASNFSHOME2/home/sstatthoudakis/Documents/spectre/Gates/NOR2/nor_validate/corners/corner_pin2/wire_load/nor_ff.mt15
Total time required for tran analysis `transient16': CPU = 186.797 ms, elapsed = 315.25 ms, util. = 59.3%.
Time accumulated: CPU = 4.43871 s, elapsed = 10.9697 s.
Peak resident memory used = 141 Mbytes.


Notice from spectre.
    2 notices suppressed.


**************************
Alter Group `altergroup16'
**************************
Time for altergroup16: CPU = 7.201 ms, elapsed = 8.16584 ms.
Time accumulated: CPU = 4.44604 s, elapsed = 10.9797 s.
Peak resident memory used = 141 Mbytes.


******************************************************
Transient Analysis `transient17': time = (0 s -> 2 ns)
******************************************************

Notice from spectre during IC analysis `timeSweep_cloned_16', during transient analysis `transient17'.
    GminDC = 1 pS is large enough to noticeably affect the DC solution.
        dV(nor4.net16) = 253.889 uV
        Use the `gmin_check' option to eliminate or expand this report.

DC simulation time: CPU = 3.44 ms, elapsed = 4.8089 ms.

Notice from spectre during transient analysis `transient17'.
    No outputs were found. Loosening output filter criterion to `allpub'.


Opening the PSFXL file ./nor_ff.raw/transient17.tran.tran ...
Important parameter values:
    start = 0 s
    outputstart = 0 s
    stop = 2 ns
    step = 100 fs
    maxstep = 40 ps
    ic = all
    useprevic = no
    skipdc = no
    reltol = 1e-03
    abstol(V) = 1 uV
    abstol(I) = 1 pA
    temp = 50 C
    tnom = 27 C
    tempeffects = all
    errpreset = moderate
    method = traponly
    lteratio = 3.5
    relref = sigglobal
    cmin = 0 F
    gmin = 1 pS


Output and IC/nodeset summary:
                 probe  2       
                 save   3       (current)
                 save   165     (voltage)

......9......8......7......6......

Notice from spectre at time = 1.02275 ns during transient analysis `transient17'.
    Found trapezoidal ringing on node nor10.3:A.

......9......8......7......6......5.

Notice from spectre at time = 1.06275 ns during transient analysis `transient17'.
    Found trapezoidal ringing on node nor10.3:A.

......9......8......7......6......5..

Notice from spectre at time = 1.10275 ns during transient analysis `transient17'.
    Found trapezoidal ringing on node nor10.3:A.

......9......8......7......6......5....

Notice from spectre at time = 1.12887 ns during transient analysis `transient17'.
    Found trapezoidal ringing on node nor10.3:A.

......9......8......7......6......5.....

Notice from spectre at time = 1.155 ns during transient analysis `transient17'.
    Found trapezoidal ringing on node nor10.3:A.
        Further occurrences of this notice will be suppressed.

......9......8......7......6......5......4......3......2......1......0
Number of accepted tran steps =             256

Notice from spectre during transient analysis `transient17'.
    Trapezoidal ringing is detected during tran analysis.
        Please use method=trap for better results and performance.


Maximum value achieved for any signal of each quantity: 
V: V(nor10.net16) = 1.057 V
I: I(VGND:p) = 75.38 uA
If your circuit contains signals of the same quantity that are vastly different in size (such as high voltage circuitry combined with low voltage control circuitry), you should consider specifying global option `bin_relref=yes'.

~~~~~~~~~~~~~~~~~~~~~~~~~~~~~~~~~
Post-Transient Simulation Summary
~~~~~~~~~~~~~~~~~~~~~~~~~~~~~~~~~
   -   To further speed up simulation, consider
          add ++aps on command line
~~~~~~~~~~~~~~~~~~~~~~~~~~~~~~~~~


During simulation, the CPU load for active processors is :
         0 (10.4 %)      1 (16.5 %)      2 (8.3 %)       3 (100.0 %)
         4 (12.0 %)      5 (4.8 %)       6 (11.4 %)      7 (11.1 %)
         8 (4.7 %)       9 (3.5 %)      10 (13.9 %)     11 (100.0 %)
        Total: 296.7%
Initial condition solution time: CPU = 3.496 ms, elapsed = 5.13506 ms.
Intrinsic tran analysis time:    CPU = 187.586 ms, elapsed = 303.596 ms.
Opening mt file:  /CASNFSHOME2/home/sstatthoudakis/Documents/spectre/Gates/NOR2/nor_validate/corners/corner_pin2/wire_load/nor_ff.mt16
Total time required for tran analysis `transient17': CPU = 194.327 ms, elapsed = 324.463 ms, util. = 59.9%.
Time accumulated: CPU = 4.64604 s, elapsed = 11.3403 s.
Peak resident memory used = 141 Mbytes.


**************************
Alter Group `altergroup17'
**************************
Time for altergroup17: CPU = 7.838 ms, elapsed = 8.33988 ms.
Time accumulated: CPU = 4.65402 s, elapsed = 11.3502 s.
Peak resident memory used = 141 Mbytes.


******************************************************
Transient Analysis `transient18': time = (0 s -> 2 ns)
******************************************************
DC simulation time: CPU = 3.754 ms, elapsed = 3.757 ms.

Notice from spectre during transient analysis `transient18'.
    No outputs were found. Loosening output filter criterion to `allpub'.


Opening the PSFXL file ./nor_ff.raw/transient18.tran.tran ...
Important parameter values:
    start = 0 s
[...]
Transient Analysis `transient143': time = (0 s -> 2 ns)
*******************************************************

Notice from spectre during IC analysis `timeSweep_cloned_142', during transient analysis `transient143'.
    GminDC = 1 pS is large enough to noticeably affect the DC solution.
        dV(nor2.net16) = 239.742 uV
        Use the `gmin_check' option to eliminate or expand this report.

DC simulation time: CPU = 3.474 ms, elapsed = 7.7889 ms.

Notice from spectre during transient analysis `transient143'.
    No outputs were found. Loosening output filter criterion to `allpub'.


Opening the PSFXL file ./nor_ff.raw/transient143.tran.tran ...
Important parameter values:
    start = 0 s
    outputstart = 0 s
    stop = 2 ns
    step = 100 fs
    maxstep = 40 ps
    ic = all
    useprevic = no
    skipdc = no
    reltol = 1e-03
    abstol(V) = 1 uV
    abstol(I) = 1 pA
    temp = 50 C
    tnom = 27 C
    tempeffects = all
    errpreset = moderate
    method = traponly
    lteratio = 3.5
    relref = sigglobal
    cmin = 0 F
    gmin = 1 pS


Output and IC/nodeset summary:
                 probe  2       
                 save   3       (current)
                 save   165     (voltage)

......9.....

Notice from spectre at time = 332.395 ps during transient analysis `transient143'.
    Found trapezoidal ringing on node nor8.3:A.
Notice from spectre at time = 333.837 ps during transient analysis `transient143'.
    Found trapezoidal ringing on node nor8.3:A.
Notice from spectre at time = 336.72 ps during transient analysis `transient143'.
    Found trapezoidal ringing on node nor8.3:A.

......9......8......7....

Notice from spectre at time = 754.545 ps during transient analysis `transient143'.
    Found trapezoidal ringing on node VVDD:p.

......9......8......7.....

Notice from spectre at time = 794.545 ps during transient analysis `transient143'.
    Found trapezoidal ringing on node VGND:p.
        Further occurrences of this notice will be suppressed.

......9......8......7......6......5......4......3......2......1......0
Number of accepted tran steps =             244

Notice from spectre during transient analysis `transient143'.
    Trapezoidal ringing is detected during tran analysis.
        Please use method=trap for better results and performance.


Maximum value achieved for any signal of each quantity: 
V: V(nor10.2:Q) = 1.484 V
I: I(VGND:p) = 178.7 uA
If your circuit contains signals of the same quantity that are vastly different in size (such as high voltage circuitry combined with low voltage control circuitry), you should consider specifying global option `bin_relref=yes'.

~~~~~~~~~~~~~~~~~~~~~~~~~~~~~~~~~
Post-Transient Simulation Summary
~~~~~~~~~~~~~~~~~~~~~~~~~~~~~~~~~
   -   To further speed up simulation, consider
          add ++aps on command line
~~~~~~~~~~~~~~~~~~~~~~~~~~~~~~~~~


During simulation, the CPU load for active processors is :
         0 (5.6 %)       1 (16.4 %)      2 (15.8 %)      3 (100.0 %)
         4 (11.3 %)      5 (10.9 %)      6 (46.0 %)      7 (4.8 %)
         8 (3.2 %)       9 (2.1 %)      10 (3.7 %)      11 (57.7 %)
        Total: 277.3%
Initial condition solution time: CPU = 3.533 ms, elapsed = 9.46403 ms.
Intrinsic tran analysis time:    CPU = 205.707 ms, elapsed = 620.842 ms.
Opening mt file:  /CASNFSHOME2/home/sstatthoudakis/Documents/spectre/Gates/NOR2/nor_validate/corners/corner_pin2/wire_load/nor_ff.mt142
Total time required for tran analysis `transient143': CPU = 214.309 ms, elapsed = 848.665 ms, util. = 25.3%.
Time accumulated: CPU = 30.9776 s, elapsed = 69.8949 s (1m  9.9s).
Peak resident memory used = 144 Mbytes.


Notice from spectre.
    14 notices suppressed.


***************************
Alter Group `altergroup143'
***************************
Time for altergroup143: CPU = 9.886 ms, elapsed = 10.9601 ms.
Time accumulated: CPU = 30.9876 s, elapsed = 69.9073 s (1m  9.9s).
Peak resident memory used = 144 Mbytes.


*******************************************************
Transient Analysis `transient144': time = (0 s -> 2 ns)
*******************************************************
DC simulation time: CPU = 3.948 ms, elapsed = 3.94988 ms.

Notice from spectre during transient analysis `transient144'.
    No outputs were found. Loosening output filter criterion to `allpub'.


Opening the PSFXL file ./nor_ff.raw/transient144.tran.tran ...
Important parameter values:
    start = 0 s
    outputstart = 0 s
    stop = 2 ns
    step = 100 fs
    maxstep = 40 ps
    ic = all
    useprevic = no
    skipdc = no
    reltol = 1e-03
    abstol(V) = 1 uV
    abstol(I) = 1 pA
    temp = 125 C
    tnom = 27 C
    tempeffects = all
    errpreset = moderate
    method = traponly
    lteratio = 3.5
    relref = sigglobal
    cmin = 0 F
    gmin = 1 pS


Output and IC/nodeset summary:
                 probe  2       
                 save   3       (current)
                 save   165     (voltage)

......9.....

Notice from spectre at time = 342.757 ps during transient analysis `transient144'.
    Found trapezoidal ringing on node nor8.3:A.

......9......8......7......6

Notice from spectre at time = 842.727 ps during transient analysis `transient144'.
    Found trapezoidal ringing on node nor10.3:A.

......9......8......7......6.

Notice from spectre at time = 882.727 ps during transient analysis `transient144'.
    Found trapezoidal ringing on node nor10.3:A.

......9......8......7......6...

Notice from spectre at time = 922.727 ps during transient analysis `transient144'.
    Found trapezoidal ringing on node nor10.3:A.

......9......8......7......6....

Notice from spectre at time = 962.727 ps during transient analysis `transient144'.
    Found trapezoidal ringing on node nor10.3:A.
        Further occurrences of this notice will be suppressed.

......9......8......7......6......5......4......3......2......1......0
Number of accepted tran steps =             232

Notice from spectre during transient analysis `transient144'.
    Trapezoidal ringing is detected during tran analysis.
        Please use method=trap for better results and performance.


Maximum value achieved for any signal of each quantity: 
V: V(nor10.net16) = 1.479 V
I: I(VGND:p) = 164 uA
If your circuit contains signals of the same quantity that are vastly different in size (such as high voltage circuitry combined with low voltage control circuitry), you should consider specifying global option `bin_relref=yes'.

~~~~~~~~~~~~~~~~~~~~~~~~~~~~~~~~~
Post-Transient Simulation Summary
~~~~~~~~~~~~~~~~~~~~~~~~~~~~~~~~~
   -   To further speed up simulation, consider
          add ++aps on command line
~~~~~~~~~~~~~~~~~~~~~~~~~~~~~~~~~


During simulation, the CPU load for active processors is :
         0 (5.6 %)       1 (16.4 %)      2 (15.7 %)      3 (100.0 %)
         4 (11.5 %)      5 (10.9 %)      6 (46.2 %)      7 (4.8 %)
         8 (3.2 %)       9 (2.1 %)      10 (3.7 %)      11 (57.4 %)
        Total: 277.4%
Initial condition solution time: CPU = 4.02 ms, elapsed = 4.32396 ms.
Intrinsic tran analysis time:    CPU = 170.501 ms, elapsed = 267.164 ms.
Opening mt file:  /CASNFSHOME2/home/sstatthoudakis/Documents/spectre/Gates/NOR2/nor_validate/corners/corner_pin2/wire_load/nor_ff.mt143
Total time required for tran analysis `transient144': CPU = 177.929 ms, elapsed = 287.017 ms, util. = 62%.
Time accumulated: CPU = 31.171 s, elapsed = 70.2314 s (1m  10.2s).
Peak resident memory used = 144 Mbytes.


Notice from spectre.
    5 notices suppressed.


***************************
Alter Group `altergroup144'
***************************
Time for altergroup144: CPU = 7.888 ms, elapsed = 8.7359 ms.
Time accumulated: CPU = 31.179 s, elapsed = 70.2414 s (1m  10.2s).
Peak resident memory used = 144 Mbytes.


*******************************************************
Transient Analysis `transient145': time = (0 s -> 2 ns)
*******************************************************

Notice from spectre during IC analysis `timeSweep_cloned_144', during transient analysis `transient145'.
    GminDC = 1 pS is large enough to noticeably affect the DC solution.
        dV(nor10.net16) = 1.78404 mV
        Use the `gmin_check' option to eliminate or expand this report.

DC simulation time: CPU = 3.867 ms, elapsed = 5.01299 ms.

Notice from spectre during transient analysis `transient145'.
    No outputs were found. Loosening output filter criterion to `allpub'.


Opening the PSFXL file ./nor_ff.raw/transient145.tran.tran ...
Important parameter values:
    start = 0 s
    outputstart = 0 s
    stop = 2 ns
    step = 100 fs
    maxstep = 40 ps
    ic = all
    useprevic = no
    skipdc = no
    reltol = 1e-03
    abstol(V) = 1 uV
    abstol(I) = 1 pA
    temp = 0 C
    tnom = 27 C
    tempeffects = all
    errpreset = moderate
    method = traponly
    lteratio = 3.5
    relref = sigglobal
    cmin = 0 F
    gmin = 1 pS


Output and IC/nodeset summary:
                 probe  2       
                 save   3       (current)
                 save   165     (voltage)

......9..

Notice from spectre at time = 265.738 ps during transient analysis `transient145'.
    Found trapezoidal ringing on node nor6.3:A.

......9....

Notice from spectre at time = 324.952 ps during transient analysis `transient145'.
    Found trapezoidal ringing on node nor6.3:A.

......9......8......7

Notice from spectre at time = 649.5 ps during transient analysis `transient145'.
    Found trapezoidal ringing on node VGND:p.

......9......8......7..

Notice from spectre at time = 689.5 ps during transient analysis `transient145'.
    Found trapezoidal ringing on node VVDD:p.

......9......8......7...

Notice from spectre at time = 729.5 ps during transient analysis `transient145'.
    Found trapezoidal ringing on node VGND:p.
        Further occurrences of this notice will be suppressed.

......9......8......7......6......5......4......3......2......1......0
Number of accepted tran steps =             252

Notice from spectre during transient analysis `transient145'.
    Trapezoidal ringing is detected during tran analysis.
        Please use method=trap for better results and performance.


Maximum value achieved for any signal of each quantity: 
V: V(nor10.2:Q) = 1.497 V
I: I(VGND:p) = 194.3 uA
If your circuit contains signals of the same quantity that are vastly different in size (such as high voltage circuitry combined with low voltage control circuitry), you should consider specifying global option `bin_relref=yes'.

~~~~~~~~~~~~~~~~~~~~~~~~~~~~~~~~~
Post-Transient Simulation Summary
~~~~~~~~~~~~~~~~~~~~~~~~~~~~~~~~~
   -   To further speed up simulation, consider
          add ++aps on command line
~~~~~~~~~~~~~~~~~~~~~~~~~~~~~~~~~


During simulation, the CPU load for active processors is :
         0 (5.6 %)       1 (16.3 %)      2 (15.6 %)      3 (100.0 %)
         4 (11.7 %)      5 (10.8 %)      6 (46.5 %)      7 (4.8 %)
         8 (3.2 %)       9 (2.1 %)      10 (3.7 %)      11 (57.1 %)
        Total: 277.3%
Initial condition solution time: CPU = 3.919 ms, elapsed = 5.36299 ms.
Intrinsic tran analysis time:    CPU = 180.816 ms, elapsed = 302.961 ms.
Opening mt file:  /CASNFSHOME2/home/sstatthoudakis/Documents/spectre/Gates/NOR2/nor_validate/corners/corner_pin2/wire_load/nor_ff.mt144
Total time required for tran analysis `transient145': CPU = 187.95 ms, elapsed = 324.017 ms, util. = 58%.
Time accumulated: CPU = 31.3723 s, elapsed = 70.6008 s (1m  10.6s).
Peak resident memory used = 144 Mbytes.


Notice from spectre.
    15 notices suppressed.


***************************
Alter Group `altergroup145'
***************************
Time for altergroup145: CPU = 7.694 ms, elapsed = 8.46601 ms.
Time accumulated: CPU = 31.3801 s, elapsed = 70.6101 s (1m  10.6s).
Peak resident memory used = 144 Mbytes.


*******************************************************
Transient Analysis `transient146': time = (0 s -> 2 ns)
*******************************************************

Notice from spectre during IC analysis `timeSweep_cloned_145', during transient analysis `transient146'.
    GminDC = 1 pS is large enough to noticeably affect the DC solution.
        dV(nor2.net16) = 239.201 uV
        Use the `gmin_check' option to eliminate or expand this report.

DC simulation time: CPU = 3.311 ms, elapsed = 4.46796 ms.

Notice from spectre during transient analysis `transient146'.
    No outputs were found. Loosening output filter criterion to `allpub'.


Opening the PSFXL file ./nor_ff.raw/transient146.tran.tran ...
Important parameter values:
    start = 0 s
    outputstart = 0 s
    stop = 2 ns
    step = 100 fs
    maxstep = 40 ps
    ic = all
    useprevic = no
    skipdc = no
    reltol = 1e-03
    abstol(V) = 1 uV
    abstol(I) = 1 pA
    temp = 50 C
    tnom = 27 C
    tempeffects = all
    errpreset = moderate
    method = traponly
    lteratio = 3.5
    relref = sigglobal
    cmin = 0 F
    gmin = 1 pS


Output and IC/nodeset summary:
                 probe  2       
                 save   3       (current)
                 save   165     (voltage)

......9.....

Notice from spectre at time = 332.676 ps during transient analysis `transient146'.
    Found trapezoidal ringing on node nor6.3:A.

......9......8......7.

Notice from spectre at time = 681.899 ps during transient analysis `transient146'.
    Found trapezoidal ringing on node VVDD:p.

......9......8......7...

Notice from spectre at time = 721.899 ps during transient analysis `transient146'.
    Found trapezoidal ringing on node VGND:p.

......9......8......7....

Notice from spectre at time = 761.899 ps during transient analysis `transient146'.
    Found trapezoidal ringing on node VVDD:p.

......9......8......7......

Notice from spectre at time = 801.899 ps during transient analysis `transient146'.
    Found trapezoidal ringing on node VGND:p.
        Further occurrences of this notice will be suppressed.

......9......8......7......6......5......4......3......2......1......0
Number of accepted tran steps =             244

Notice from spectre during transient analysis `transient146'.
    Trapezoidal ringing is detected during tran analysis.
        Please use method=trap for better results and performance.


Maximum value achieved for any signal of each quantity: 
V: V(nor10.2:Q) = 1.495 V
I: I(VGND:p) = 180.5 uA
If your circuit contains signals of the same quantity that are vastly different in size (such as high voltage circuitry combined with low voltage control circuitry), you should consider specifying global option `bin_relref=yes'.

~~~~~~~~~~~~~~~~~~~~~~~~~~~~~~~~~
Post-Transient Simulation Summary
~~~~~~~~~~~~~~~~~~~~~~~~~~~~~~~~~
   -   To further speed up simulation, consider
          add ++aps on command line
~~~~~~~~~~~~~~~~~~~~~~~~~~~~~~~~~


During simulation, the CPU load for active processors is :
         0 (5.5 %)       1 (16.1 %)      2 (15.4 %)      3 (100.0 %)
         4 (11.8 %)      5 (10.7 %)      6 (47.4 %)      7 (4.8 %)
         8 (3.2 %)       9 (2.1 %)      10 (3.7 %)      11 (56.2 %)
        Total: 277.0%
Initial condition solution time: CPU = 3.36 ms, elapsed = 4.84395 ms.
Intrinsic tran analysis time:    CPU = 178.636 ms, elapsed = 1.08702 s.
Opening mt file:  /CASNFSHOME2/home/sstatthoudakis/Documents/spectre/Gates/NOR2/nor_validate/corners/corner_pin2/wire_load/nor_ff.mt145
Total time required for tran analysis `transient146': CPU = 185.224 ms, elapsed = 1.10781 s, util. = 16.7%.
Time accumulated: CPU = 31.5705 s, elapsed = 71.7531 s (1m  11.8s).
Peak resident memory used = 144 Mbytes.


Notice from spectre.
    13 notices suppressed.


***************************
Alter Group `altergroup146'
***************************
Time for altergroup146: CPU = 7.759 ms, elapsed = 8.53491 ms.
Time accumulated: CPU = 31.5784 s, elapsed = 71.7629 s (1m  11.8s).
Peak resident memory used = 144 Mbytes.


*******************************************************
Transient Analysis `transient147': time = (0 s -> 2 ns)
*******************************************************
DC simulation time: CPU = 3.343 ms, elapsed = 3.34501 ms.

Notice from spectre during transient analysis `transient147'.
    No outputs were found. Loosening output filter criterion to `allpub'.


Opening the PSFXL file ./nor_ff.raw/transient147.tran.tran ...
Important parameter values:
    start = 0 s
    outputstart = 0 s
    stop = 2 ns
    step = 100 fs
    maxstep = 40 ps
    ic = all
    useprevic = no
    skipdc = no
    reltol = 1e-03
    abstol(V) = 1 uV
    abstol(I) = 1 pA
    temp = 125 C
    tnom = 27 C
    tempeffects = all
    errpreset = moderate
    method = traponly
    lteratio = 3.5
    relref = sigglobal
    cmin = 0 F
    gmin = 1 pS


Output and IC/nodeset summary:
                 probe  2       
                 save   3       (current)
                 save   165     (voltage)

......9...

Notice from spectre at time = 277.875 ps during transient analysis `transient147'.
    Found trapezoidal ringing on node nor6.3:A.

......9......8......7......6

Notice from spectre at time = 836.689 ps during transient analysis `transient147'.
    Found trapezoidal ringing on node nor10.3:A.

......9......8......7......6.

Notice from spectre at time = 876.689 ps during transient analysis `transient147'.
    Found trapezoidal ringing on node nor10.3:A.

......9......8......7......6...

Notice from spectre at time = 916.689 ps during transient analysis `transient147'.
    Found trapezoidal ringing on node nor10.3:A.

......9......8......7......6....

Notice from spectre at time = 956.689 ps during transient analysis `transient147'.
    Found trapezoidal ringing on node nor10.3:A.
        Further occurrences of this notice will be suppressed.

......9......8......7......6......5......4......3......2......1......0
Number of accepted tran steps =             228

Notice from spectre during transient analysis `transient147'.
    Trapezoidal ringing is detected during tran analysis.
        Please use method=trap for better results and performance.


Maximum value achieved for any signal of each quantity: 
V: V(nor10.net16) = 1.489 V
I: I(VGND:p) = 166 uA
If your circuit contains signals of the same quantity that are vastly different in size (such as high voltage circuitry combined with low voltage control circuitry), you should consider specifying global option `bin_relref=yes'.

~~~~~~~~~~~~~~~~~~~~~~~~~~~~~~~~~
Post-Transient Simulation Summary
~~~~~~~~~~~~~~~~~~~~~~~~~~~~~~~~~
   -   To further speed up simulation, consider
          add ++aps on command line
~~~~~~~~~~~~~~~~~~~~~~~~~~~~~~~~~


During simulation, the CPU load for active processors is :
         0 (5.5 %)       1 (16.2 %)      2 (15.3 %)      3 (100.0 %)
         4 (12.0 %)      5 (10.7 %)      6 (47.6 %)      7 (4.8 %)
         8 (3.3 %)       9 (2.1 %)      10 (3.7 %)      11 (56.0 %)
        Total: 277.3%
Initial condition solution time: CPU = 3.407 ms, elapsed = 3.69906 ms.
Intrinsic tran analysis time:    CPU = 157.137 ms, elapsed = 248.542 ms.
Opening mt file:  /CASNFSHOME2/home/sstatthoudakis/Documents/spectre/Gates/NOR2/nor_validate/corners/corner_pin2/wire_load/nor_ff.mt146
Total time required for tran analysis `transient147': CPU = 163.694 ms, elapsed = 267.392 ms, util. = 61.2%.
Time accumulated: CPU = 31.747 s, elapsed = 72.0621 s (1m  12.1s).
Peak resident memory used = 144 Mbytes.


Notice from spectre.
    8 notices suppressed.

Licensing Information:
Lic Summary:
[14:47:35.520944] Cdslmd servers:5280@10.64.82.10
[14:47:35.520984] Feature usage summary:
[14:47:35.520985] Virtuoso_Multi_mode_Simulation


Aggregate audit (2:47:35 PM, Wed Oct 29, 2025):
Time used: CPU = 31.8 s, elapsed = 72.1 s (1m  12.1s), util. = 44.1%.
Time spent in licensing: elapsed = 35.6 ms.
Peak memory used = 145 Mbytes.
Simulation started at: 2:46:23 PM, Wed Oct 29, 2025, ended at: 2:47:35 PM, Wed Oct 29, 2025, with elapsed time (wall clock): 72.1 s (1m  12.1s).
spectre completes with 0 errors, 12 warnings, and 1237 notices.
