
Spectre (R) Circuit Simulator
Version 23.1.0.242.isr1 64bit -- 7 Sep 2023
Copyright (C) 1989-2023 Cadence Design Systems, Inc. All rights reserved
        worldwide. Cadence and Spectre are registered trademarks of Cadence
        Design Systems, Inc. All others are the property of their respective
        holders.

Includes RSA BSAFE(R) Cryptographic or Security Protocol Software from RSA
        Security, Inc.

User: sstatthoudakis   Host: torreyridge   HostID: 7F0100   PID: 28725
Memory  available: 104.5467 GB  physical: 135.0278 GB
Linux   : CentOS Linux release 7 (Core)
CPU Type: Intel(R) Xeon(R) Silver 4114 CPU @ 2.20GHz
All processors running at 2194.8 MHz
        Socket: Processors
        0:       0
        2:       1
        4:       2
        6:       3
        8:       4
        10:      5
        12:      6
        14:      7
        16:      8
        18:      9
        20:     10
        22:     11
        
System load averages (1min, 5min, 15min) : 19.5 %, 18.8 %, 20.2 %
This is a virtual machine


Simulating `nor_ff.scs' on torreyridge at 2:29:23 PM, Wed Oct 29, 2025 (process
        id: 28725).
Current working directory:
        /CASNFSHOME2/home/sstatthoudakis/Documents/spectre/Gates/NOR2/nor_validate/corners/corner_pin1/gate_load
Command line:
     \
        /CASNFSHOME/home/edatools/cadence/2023-24/RHELx86/SPECTRE_23.10.242/tools.lnx86/bin/spectre
        \
        -64 nor_ff.scs
Licensing Information:
[14:29:23.231849] Configured Lic search path (22.01-s002): 5280@10.64.82.10

Licensing Information:
[14:29:23.371547] Periodic Lic check successful

Reading file: 
        /CASNFSHOME2/home/sstatthoudakis/Documents/spectre/Gates/NOR2/nor_validate/corners/corner_pin1/gate_load/nor_ff.scs
Reading file: 
        /CASNFSHOME/home/edatools/cadence/2023-24/RHELx86/SPECTRE_23.10.242/tools.lnx86/spectre/etc/configs/spectre.cfg
Reading file: 
        /CASNFSHOME/home/tsaikaterini/IHP/IHP_Generation_files/130ng/ihp013ng_include_all_fast.scs
Reading file: 
        /CASNFSHOME/home/tsaikaterini/IHP/IHP_Generation_files/130ng/SG13S_618_rev1.12.15/tech/SG13_HBT/VBIC/spectre/SG13_cornerBIP.scs
Reading file: 
        /CASNFSHOME/home/tsaikaterini/IHP/IHP_Generation_files/130ng/SG13S_618_rev1.12.15/tech/SG13_HBT/VBIC/spectre/SG13_hbt_mm.scs
Reading file: 
        /CASNFSHOME/home/tsaikaterini/IHP/IHP_Generation_files/130ng/SG13S_618_rev1.12.15/tech/SG13_HBT/VBIC/spectre/SG13_hbt.lib
Reading file: 
        /CASNFSHOME/home/tsaikaterini/IHP/IHP_Generation_files/130ng/SG13S_618_rev1.12.15/tech/SG13_HBT/VBIC/spectre/SG13_hbt_stat.scs
Reading file: 
        /CASNFSHOME/home/tsaikaterini/IHP/IHP_Generation_files/130ng/SG13S_618_rev1.12.15/tech/SG13_MOS/library/spectre/cornerMOSlv_psp.scs
Reading file: 
        /CASNFSHOME/home/tsaikaterini/IHP/IHP_Generation_files/130ng/SG13S_618_rev1.12.15/tech/SG13_MOS/library/spectre/sg13_moslv_psp_stat.scs
Reading file: 
        /CASNFSHOME/home/tsaikaterini/IHP/IHP_Generation_files/130ng/SG13S_618_rev1.12.15/tech/SG13_MOS/library/spectre/sg13_moslv_psp_mod.lib
Reading file: 
        /CASNFSHOME/home/tsaikaterini/IHP/IHP_Generation_files/130ng/SG13S_618_rev1.12.15/tech/SG13_MOS/library/spectre/sg13_moslv_psp_parm.scs
Reading file: 
        /CASNFSHOME/home/tsaikaterini/IHP/IHP_Generation_files/130ng/SG13S_618_rev1.12.15/tech/SG13_MOS/library/spectre/cornerMOShv_psp.scs
Reading file: 
        /CASNFSHOME/home/tsaikaterini/IHP/IHP_Generation_files/130ng/SG13S_618_rev1.12.15/tech/SG13_MOS/library/spectre/sg13_moshv_psp_stat.scs
Reading file: 
        /CASNFSHOME/home/tsaikaterini/IHP/IHP_Generation_files/130ng/SG13S_618_rev1.12.15/tech/SG13_MOS/library/spectre/sg13_moshv_psp_mod.lib
Reading file: 
        /CASNFSHOME/home/tsaikaterini/IHP/IHP_Generation_files/130ng/SG13S_618_rev1.12.15/tech/SG13_MOS/library/spectre/sg13_moshv_psp_parm.scs

Warning from spectre in `nmoselt', during circuit read-in.
    WARNING (SFE-2296):
        "/CASNFSHOME/home/tsaikaterini/IHP/IHP_Generation_files/130ng/SG13S_618_rev1.12.15/tech/SG13_MOS/library/spectre/sg13_moshv_psp_mod.lib"
        79: The inline subckt definition `nmoselt' does not contain any inline
        components. The `inline' qualifier will therefore be ignored.

Reading file: 
        /CASNFSHOME/home/tsaikaterini/IHP/IHP_Generation_files/130ng/SG13S_618_rev1.12.15/tech/SG13_MOS/library/spectre/sg13_svaricaphv_mosvar_mod.lib
Reading file: 
        /CASNFSHOME/home/tsaikaterini/IHP/IHP_Generation_files/130ng/SG13S_618_rev1.12.15/tech/SG13_PASSIVES/spectre/SG13_cornerRES.scs
Reading file: 
        /CASNFSHOME/home/tsaikaterini/IHP/IHP_Generation_files/130ng/SG13S_618_rev1.12.15/tech/SG13_PASSIVES/spectre/SG13_res_mm.scs
Reading file: 
        /CASNFSHOME/home/tsaikaterini/IHP/IHP_Generation_files/130ng/SG13S_618_rev1.12.15/tech/SG13_PASSIVES/spectre/SG13_res_stat.scs
Reading file: 
        /CASNFSHOME/home/tsaikaterini/IHP/IHP_Generation_files/130ng/SG13S_618_rev1.12.15/tech/SG13_PASSIVES/spectre/SG13_res.lib
Reading file: 
        /CASNFSHOME/home/tsaikaterini/IHP/IHP_Generation_files/130ng/SG13S_618_rev1.12.15/tech/SG13_PASSIVES/spectre/SG13_cornerCAP.scs
Reading file: 
        /CASNFSHOME/home/tsaikaterini/IHP/IHP_Generation_files/130ng/SG13S_618_rev1.12.15/tech/SG13_PASSIVES/spectre/SG13_cap_mm.scs
Reading file: 
        /CASNFSHOME/home/tsaikaterini/IHP/IHP_Generation_files/130ng/SG13S_618_rev1.12.15/tech/SG13_PASSIVES/spectre/SG13_cap_stat.scs
Reading file: 
        /CASNFSHOME/home/tsaikaterini/IHP/IHP_Generation_files/130ng/SG13S_618_rev1.12.15/tech/SG13_PASSIVES/spectre/SG13_cap.lib
Reading file: 
        /CASNFSHOME/home/tsaikaterini/IHP/IHP_Generation_files/130ng/SG13S_618_rev1.12.15/tech/SG13_PASSIVES/spectre/Ind_unit_4PI
Reading file: 
        /CASNFSHOME/home/tsaikaterini/IHP/IHP_Generation_files/130ng/SG13S_618_rev1.12.15/tech/SG13_PASSIVES/spectre/Parameters_define_4PI
Reading file: 
        /CASNFSHOME/home/tsaikaterini/IHP/IHP_Generation_files/130ng/SG13S_618_rev1.12.15/tech/SG13_PASSIVES/spectre/sg13s_dschottky_nbl1_mod.lib
Reading file: 
        /CASNFSHOME/home/tsaikaterini/IHP/IHP_Generation_files/130ng/SG13S_618_rev1.12.15/tech/SG13_PASSIVES/spectre/SG13_diodes.lib
Reading file: 
        /CASNFSHOME/home/tsaikaterini/IHP/IHP_Generation_files/130ng/SG13S_618_rev1.12.15/tech/SG13_MOS/library/spectre/CheckMOSstat.scs
Reading file: 
        /CASNFSHOME/home/tsaikaterini/IHP/IHP_Generation_files/130ng/SG13S_618_rev1.12.15/tech/SG13_MOS/library/spectre/CheckMOSdyn.scs
Reading file: 
        /CASNFSHOME/home/tsaikaterini/IHP/IHP_Generation_files/130ng/SG13S_618_rev1.12.15/tech/SG13_ESD/spectre/SG13_esd.lib
Reading file: 
        /CASNFSHOME/home/tsaikaterini/IHP/IHP_Generation_files/130ng/SG13S_618_rev1.12.15/tech/SG13_PASSIVES/spectre/SG13_cornerTSV.scs
Reading file: 
        /CASNFSHOME/home/tsaikaterini/IHP/IHP_Generation_files/130ng/SG13S_618_rev1.12.15/tech/SG13_PASSIVES/spectre/SG13_paramsTSV.scs
Reading file: 
        /CASNFSHOME/home/tsaikaterini/IHP/IHP_Generation_files/130ng/SG13S_618_rev1.12.15/tech/SG13_PASSIVES/spectre/SG13_tsv.lib
Reading file: 
        /CASNFSHOME/home/tsaikaterini/IHP/IHP_Generation_files/130ng/ixc013ng_stdcell_rc.scs
Time for NDB Parsing: CPU = 636.96 ms, elapsed = 2.15814 s.
Time accumulated: CPU = 776.48 ms, elapsed = 2.15814 s.
Peak resident memory used = 116 Mbytes.


Warning from spectre in `NO2JIX0':`nor1', during hierarchy flattening.
    WARNING (SFE-103):
        "/CASNFSHOME/home/tsaikaterini/IHP/IHP_Generation_files/130ng/ixc013ng_stdcell_rc.scs"
        28325: Subcircuit parameter `nrd', defined for subcircuit
        `sg13_lv_pmos', has been ignored because it is invalid. Check the
        parameters that are defined for the instantiated subcircuit and rerun
        the simulation.
    WARNING (SFE-103):
        "/CASNFSHOME/home/tsaikaterini/IHP/IHP_Generation_files/130ng/ixc013ng_stdcell_rc.scs"
        28325: Subcircuit parameter `nrs', defined for subcircuit
        `sg13_lv_pmos', has been ignored because it is invalid. Check the
        parameters that are defined for the instantiated subcircuit and rerun
        the simulation.
    WARNING (SFE-103):
        "/CASNFSHOME/home/tsaikaterini/IHP/IHP_Generation_files/130ng/ixc013ng_stdcell_rc.scs"
        28328: Subcircuit parameter `nrd', defined for subcircuit
        `sg13_lv_pmos', has been ignored because it is invalid. Check the
        parameters that are defined for the instantiated subcircuit and rerun
        the simulation.
    WARNING (SFE-103):
        "/CASNFSHOME/home/tsaikaterini/IHP/IHP_Generation_files/130ng/ixc013ng_stdcell_rc.scs"
        28328: Subcircuit parameter `nrs', defined for subcircuit
        `sg13_lv_pmos', has been ignored because it is invalid. Check the
        parameters that are defined for the instantiated subcircuit and rerun
        the simulation.
    WARNING (SFE-103):
        "/CASNFSHOME/home/tsaikaterini/IHP/IHP_Generation_files/130ng/ixc013ng_stdcell_rc.scs"
        28330: Subcircuit parameter `nrd', defined for subcircuit
        `sg13_lv_nmos', has been ignored because it is invalid. Check the
        parameters that are defined for the instantiated subcircuit and rerun
        the simulation.
        Further occurrences of this warning will be suppressed.

Time for Elaboration: CPU = 52.303 ms, elapsed = 257.158 ms.
Time accumulated: CPU = 829.023 ms, elapsed = 2.4175 s.
Peak resident memory used = 125 Mbytes.


Notice from spectre in `NO2JIX0':`nor1', during hierarchy flattening.
    nor1.c6: Terminals are connected together (to node `VSS').
Notice from spectre in `NO2JIX0':`nor2', during hierarchy flattening.
    nor2.c6: Terminals are connected together (to node `VSS').
Notice from spectre in `NO2JIX0':`nor3', during hierarchy flattening.
    nor3.c6: Terminals are connected together (to node `VSS').
Notice from spectre in `NO2JIX0':`nor4', during hierarchy flattening.
    nor4.c6: Terminals are connected together (to node `VSS').
Notice from spectre in `NO2JIX0':`nor5', during hierarchy flattening.
    nor5.c6: Terminals are connected together (to node `VSS').
        Further occurrences of this notice will be suppressed (except in log
        file).

Time for EDB Visiting: CPU = 43.472 ms, elapsed = 48.0878 ms.
Time accumulated: CPU = 872.72 ms, elapsed = 2.46711 s.
Peak resident memory used = 133 Mbytes.


Warning from spectre during initial setup.
    WARNING (SPECTRE-17237): Assert violations will be written to the sqldb
        file because the 'checklimitdest' option has not been specified.
    WARNING (SPECTRE-17607): Assert `check_sg13s_lv_nmosHV_vgs' is ignored
        because it contains an expression which is not supported by native
        evaluator. 
    WARNING (SPECTRE-17607): Assert `check_sg13s_lv_nmosHV_vgd' is ignored
        because it contains an expression which is not supported by native
        evaluator. 
    WARNING (SPECTRE-17607): Assert `check_sg13s_lv_nmosHV_vds' is ignored
        because it contains an expression which is not supported by native
        evaluator. 
    WARNING (SPECTRE-17607): Assert `check_sg13s_lv_nmosHV_vdb' is ignored
        because it contains an expression which is not supported by native
        evaluator. 
    WARNING (SPECTRE-17607): Assert `check_sg13s_lv_nmosHV_vgb' is ignored
        because it contains an expression which is not supported by native
        evaluator. 
        Further occurrences of this warning will be suppressed.


Global user options:
               temp = 0

Scoped user options:

Circuit inventory:
              nodes 563
          capacitor 680   
          pspnqs103 160   
           resistor 480   
            vsource 3     

Analysis and control statement inventory:
         altergroup 146   
               tran 147   

Output statements:
             .probe 0     
           .measure 3     
               save 0     

Design checks inventory:
          paramtest 640   
             assert 40    


Notice from spectre.
    35 notices suppressed.
    322 warnings suppressed.

Time for parsing: CPU = 36.316 ms, elapsed = 1.94564 s.
Time accumulated: CPU = 909.257 ms, elapsed = 4.41438 s.
Peak resident memory used = 137 Mbytes.

~~~~~~~~~~~~~~~~~~~~~~
Pre-Simulation Summary
~~~~~~~~~~~~~~~~~~~~~~
~~~~~~~~~~~~~~~~~~~~~~

Notice from spectre during transient analysis `transient1'.
    No checklimit analysis defined for asserts. A default checklimit analysis
        'SpectreChecklimitAnal' has been created with all asserts enabled.


*****************************************************
Transient Analysis `transient1': time = (0 s -> 2 ns)
*****************************************************
DC simulation time: CPU = 22.57 ms, elapsed = 22.573 ms.

Notice from spectre during transient analysis `transient1'.
    No outputs were found. Loosening output filter criterion to `allpub'.


Opening the PSFXL file ./nor_ff.raw/transient1.tran.tran ...
Important parameter values:
    start = 0 s
    outputstart = 0 s
    stop = 2 ns
    step = 100 fs
    maxstep = 40 ps
    ic = all
    useprevic = no
    skipdc = no
    reltol = 1e-03
    abstol(V) = 1 uV
    abstol(I) = 1 pA
    temp = 0 C
    tnom = 27 C
    tempeffects = all
    errpreset = moderate
    method = traponly
    lteratio = 3.5
    relref = sigglobal
    cmin = 0 F
    gmin = 1 pS


Output and IC/nodeset summary:
                 probe  2       
                 save   3       (current)
                 save   563     (voltage)

......9......8......7......6..

Notice from spectre at time = 870.395 ps during transient analysis
        `transient1'.
    Found trapezoidal ringing on node nor1_fanout4.nor13.1:A.

......9......8......7......6......5.....

Notice from spectre at time = 1.15397 ns during transient analysis
        `transient1'.
    Found trapezoidal ringing on node nor1_fanout4.nor13.1:A.
Notice from spectre at time = 1.155 ns during transient analysis `transient1'.
    Found trapezoidal ringing on node nor1_fanout4.nor13.1:A.

......9......8......7......6......5......4......3......2......1......0
Number of accepted tran steps =             212

Notice from spectre during transient analysis `transient1'.
    Trapezoidal ringing is detected during tran analysis.
        Please use method=trap for better results and performance.


Maximum value achieved for any signal of each quantity: 
V: V(nor10_fanout4.nor13.2:Q) = 1.003 V
I: I(VVDD:p) = 109.1 uA
If your circuit contains signals of the same quantity that are vastly different
        in size (such as high voltage circuitry combined with low voltage
        control circuitry), you should consider specifying global option
        `bin_relref=yes'.

~~~~~~~~~~~~~~~~~~~~~~~~~~~~~~~~~
Post-Transient Simulation Summary
~~~~~~~~~~~~~~~~~~~~~~~~~~~~~~~~~
   -   To further speed up simulation, consider
          add ++aps on command line
~~~~~~~~~~~~~~~~~~~~~~~~~~~~~~~~~


During simulation, the CPU load for active processors is :
         0 (13.5 %)      1 (6.3 %)       2 (4.5 %)       3 (5.7 %)
         4 (100.0 %)     5 (15.9 %)      6 (100.0 %)     7 (2.4 %)
         8 (3.9 %)       9 (2.2 %)      10 (3.7 %)      11 (1.2 %)
        Total: 259.3%
Initial condition solution time: CPU = 22.748 ms, elapsed = 23.4759 ms.
Intrinsic tran analysis time:    CPU = 599.768 ms, elapsed = 684.828 ms.
Opening measure  file: 
        /CASNFSHOME2/home/sstatthoudakis/Documents/spectre/Gates/NOR2/nor_validate/corners/corner_pin1/gate_load/nor_ff.measure
Opening mt file: 
        /CASNFSHOME2/home/sstatthoudakis/Documents/spectre/Gates/NOR2/nor_validate/corners/corner_pin1/gate_load/nor_ff.mt0
Total time required for tran analysis `transient1': CPU = 700.77 ms, elapsed =
        965.831 ms, util. = 72.6%.
Time accumulated: CPU = 1.63286 s, elapsed = 5.47269 s.
Peak resident memory used = 150 Mbytes.


*************************
Alter Group `altergroup1'
*************************
Time for altergroup1: CPU = 23.199 ms, elapsed = 23.4859 ms.
Time accumulated: CPU = 1.65638 s, elapsed = 5.49751 s.
Peak resident memory used = 150 Mbytes.


*****************************************************
Transient Analysis `transient2': time = (0 s -> 2 ns)
*****************************************************
DC simulation time: CPU = 16.84 ms, elapsed = 16.8431 ms.

Notice from spectre during transient analysis `transient2'.
    No outputs were found. Loosening output filter criterion to `allpub'.


Opening the PSFXL file ./nor_ff.raw/transient2.tran.tran ...
Important parameter values:
    start = 0 s
    outputstart = 0 s
    stop = 2 ns
    step = 100 fs
    maxstep = 40 ps
    ic = all
    useprevic = no
    skipdc = no
    reltol = 1e-03
    abstol(V) = 1 uV
    abstol(I) = 1 pA
    temp = 50 C
    tnom = 27 C
    tempeffects = all
    errpreset = moderate
    method = traponly
    lteratio = 3.5
    relref = sigglobal
    cmin = 0 F
    gmin = 1 pS


Output and IC/nodeset summary:
                 probe  2       
                 save   3       (current)
                 save   563     (voltage)

......9......8......7......6......5......4......3......2......1......0
Number of accepted tran steps =             198

Maximum value achieved for any signal of each quantity: 
V: V(nor10_fanout4.nor13.2:Q) = 999.3 mV
I: I(VVDD:p) = 107.1 uA
If your circuit contains signals of the same quantity that are vastly different
        in size (such as high voltage circuitry combined with low voltage
        control circuitry), you should consider specifying global option
        `bin_relref=yes'.

~~~~~~~~~~~~~~~~~~~~~~~~~~~~~~~~~
Post-Transient Simulation Summary
~~~~~~~~~~~~~~~~~~~~~~~~~~~~~~~~~
   -   To further speed up simulation, consider
          add ++aps on command line
~~~~~~~~~~~~~~~~~~~~~~~~~~~~~~~~~


During simulation, the CPU load for active processors is :
         0 (22.1 %)      1 (6.0 %)       2 (5.6 %)       3 (8.1 %)
         4 (95.1 %)      5 (13.6 %)      6 (100.0 %)     7 (2.3 %)
         8 (3.6 %)       9 (2.0 %)      10 (3.1 %)      
        Total: 262.6%
Initial condition solution time: CPU = 16.948 ms, elapsed = 17.6458 ms.
Intrinsic tran analysis time:    CPU = 505.514 ms, elapsed = 558.895 ms.
Opening mt file: 
        /CASNFSHOME2/home/sstatthoudakis/Documents/spectre/Gates/NOR2/nor_validate/corners/corner_pin1/gate_load/nor_ff.mt1
Total time required for tran analysis `transient2': CPU = 532.025 ms, elapsed =
        633.656 ms, util. = 84%.
Time accumulated: CPU = 2.21462 s, elapsed = 6.22953 s.
Peak resident memory used = 150 Mbytes.


*************************
Alter Group `altergroup2'
*************************
Time for altergroup2: CPU = 17.637 ms, elapsed = 18.132 ms.
Time accumulated: CPU = 2.23238 s, elapsed = 6.24919 s.
Peak resident memory used = 150 Mbytes.


*****************************************************
Transient Analysis `transient3': time = (0 s -> 2 ns)
*****************************************************
DC simulation time: CPU = 17.006 ms, elapsed = 17.0081 ms.

Notice from spectre during transient analysis `transient3'.
    No outputs were found. Loosening output filter criterion to `allpub'.


Opening the PSFXL file ./nor_ff.raw/transient3.tran.tran ...
Important parameter values:
    start = 0 s
    outputstart = 0 s
    stop = 2 ns
    step = 100 fs
    maxstep = 40 ps
    ic = all
    useprevic = no
    skipdc = no
    reltol = 1e-03
    abstol(V) = 1 uV
    abstol(I) = 1 pA
    temp = 125 C
    tnom = 27 C
    tempeffects = all
    errpreset = moderate
    method = traponly
    lteratio = 3.5
    relref = sigglobal
    cmin = 0 F
    gmin = 1 pS


Output and IC/nodeset summary:
                 probe  2       
                 save   3       (current)
                 save   563     (voltage)

......9......8......7......6..

Notice from spectre at time = 853.197 ps during transient analysis
        `transient3'.
    Found trapezoidal ringing on node nor1_fanout4.nor12.1:A.

......9......8......7......6......5....

Notice from spectre at time = 1.12509 ns during transient analysis
        `transient3'.
    Found trapezoidal ringing on node nor1_fanout4.nor11.1:A.
Notice from spectre at time = 1.1267 ns during transient analysis
        `transient3'.
    Found trapezoidal ringing on node nor1_fanout4.nor11.1:A.
Notice from spectre at time = 1.12992 ns during transient analysis
        `transient3'.
    Found trapezoidal ringing on node nor1_fanout4.nor11.1:A.

......9......8......7......6......5......4......3......2......1......0
Number of accepted tran steps =             198

Notice from spectre during transient analysis `transient3'.
    Trapezoidal ringing is detected during tran analysis.
        Please use method=trap for better results and performance.


Maximum value achieved for any signal of each quantity: 
V: V(nor1_fanout4.nor12.2:Q) = 994.7 mV
I: I(VVDD:p) = 111.1 uA
If your circuit contains signals of the same quantity that are vastly different
        in size (such as high voltage circuitry combined with low voltage
        control circuitry), you should consider specifying global option
        `bin_relref=yes'.

~~~~~~~~~~~~~~~~~~~~~~~~~~~~~~~~~
Post-Transient Simulation Summary
~~~~~~~~~~~~~~~~~~~~~~~~~~~~~~~~~
   -   To further speed up simulation, consider
          add ++aps on command line
~~~~~~~~~~~~~~~~~~~~~~~~~~~~~~~~~


During simulation, the CPU load for active processors is :
         0 (28.0 %)      1 (6.1 %)       2 (13.4 %)      3 (10.4 %)
         4 (86.0 %)      5 (12.1 %)      6 (100.0 %)     7 (2.2 %)
         8 (4.0 %)       9 (2.0 %)      10 (2.8 %)      11 (1.0 %)
        Total: 268.0%
Initial condition solution time: CPU = 17.097 ms, elapsed = 17.7679 ms.
Intrinsic tran analysis time:    CPU = 509.583 ms, elapsed = 604.113 ms.
Opening mt file: 
        /CASNFSHOME2/home/sstatthoudakis/Documents/spectre/Gates/NOR2/nor_validate/corners/corner_pin1/gate_load/nor_ff.mt2
Total time required for tran analysis `transient3': CPU = 539.257 ms, elapsed =
        682.51 ms, util. = 79%.
Time accumulated: CPU = 2.79947 s, elapsed = 7.02213 s.
Peak resident memory used = 150 Mbytes.


*************************
Alter Group `altergroup3'
*************************
Time for altergroup3: CPU = 19.162 ms, elapsed = 19.4869 ms.
Time accumulated: CPU = 2.81894 s, elapsed = 7.04301 s.
Peak resident memory used = 150 Mbytes.


*****************************************************
Transient Analysis `transient4': time = (0 s -> 2 ns)
*****************************************************
DC simulation time: CPU = 18.014 ms, elapsed = 18.018 ms.

Notice from spectre during transient analysis `transient4'.
    No outputs were found. Loosening output filter criterion to `allpub'.


Opening the PSFXL file ./nor_ff.raw/transient4.tran.tran ...
Important parameter values:
    start = 0 s
    outputstart = 0 s
    stop = 2 ns
    step = 100 fs
    maxstep = 40 ps
    ic = all
    useprevic = no
    skipdc = no
    reltol = 1e-03
    abstol(V) = 1 uV
    abstol(I) = 1 pA
    temp = 0 C
    tnom = 27 C
    tempeffects = all
    errpreset = moderate
    method = traponly
    lteratio = 3.5
    relref = sigglobal
    cmin = 0 F
    gmin = 1 pS


Output and IC/nodeset summary:
                 probe  2       
                 save   3       (current)
                 save   563     (voltage)

......9......8......7......6......5......4......3......2......1......0
Number of accepted tran steps =             206

Maximum value achieved for any signal of each quantity: 
V: V(nor10_fanout4.nor12.2:Q) = 1.014 V
I: I(VVDD:p) = 117.9 uA
If your circuit contains signals of the same quantity that are vastly different
        in size (such as high voltage circuitry combined with low voltage
        control circuitry), you should consider specifying global option
        `bin_relref=yes'.

~~~~~~~~~~~~~~~~~~~~~~~~~~~~~~~~~
Post-Transient Simulation Summary
~~~~~~~~~~~~~~~~~~~~~~~~~~~~~~~~~
   -   To further speed up simulation, consider
          add ++aps on command line
~~~~~~~~~~~~~~~~~~~~~~~~~~~~~~~~~


During simulation, the CPU load for active processors is :
         0 (32.2 %)      1 (5.6 %)       2 (18.5 %)      3 (13.5 %)
         4 (77.1 %)      5 (12.1 %)      6 (100.0 %)     7 (2.2 %)
         8 (3.7 %)       9 (2.6 %)      10 (2.5 %)      
        Total: 270.9%
Initial condition solution time: CPU = 18.116 ms, elapsed = 18.8792 ms.
Intrinsic tran analysis time:    CPU = 563.196 ms, elapsed = 626.906 ms.
Opening mt file: 
        /CASNFSHOME2/home/sstatthoudakis/Documents/spectre/Gates/NOR2/nor_validate/corners/corner_pin1/gate_load/nor_ff.mt3
Total time required for tran analysis `transient4': CPU = 588.765 ms, elapsed =
        698.069 ms, util. = 84.3%.
Time accumulated: CPU = 3.42218 s, elapsed = 7.82733 s.
Peak resident memory used = 150 Mbytes.


*************************
Alter Group `altergroup4'
*************************
Time for altergroup4: CPU = 20.227 ms, elapsed = 20.6859 ms.
Time accumulated: CPU = 3.44254 s, elapsed = 7.84995 s.
Peak resident memory used = 150 Mbytes.


*****************************************************
Transient Analysis `transient5': time = (0 s -> 2 ns)
*****************************************************
DC simulation time: CPU = 17.823 ms, elapsed = 17.8249 ms.

Notice from spectre during transient analysis `transient5'.
    No outputs were found. Loosening output filter criterion to `allpub'.


Opening the PSFXL file ./nor_ff.raw/transient5.tran.tran ...
Important parameter values:
    start = 0 s
    outputstart = 0 s
    stop = 2 ns
    step = 100 fs
    maxstep = 40 ps
    ic = all
    useprevic = no
    skipdc = no
    reltol = 1e-03
    abstol(V) = 1 uV
    abstol(I) = 1 pA
    temp = 50 C
    tnom = 27 C
    tempeffects = all
    errpreset = moderate
    method = traponly
    lteratio = 3.5
    relref = sigglobal
    cmin = 0 F
    gmin = 1 pS


Output and IC/nodeset summary:
                 probe  2       
                 save   3       (current)
                 save   563     (voltage)

......9......8......7......6......5......4......3......2......1......0
Number of accepted tran steps =             199

Maximum value achieved for any signal of each quantity: 
V: V(nor10_fanout4.nor13.2:Q) = 1.01 V
I: I(VVDD:p) = 114.8 uA
If your circuit contains signals of the same quantity that are vastly different
        in size (such as high voltage circuitry combined with low voltage
        control circuitry), you should consider specifying global option
        `bin_relref=yes'.

~~~~~~~~~~~~~~~~~~~~~~~~~~~~~~~~~
Post-Transient Simulation Summary
~~~~~~~~~~~~~~~~~~~~~~~~~~~~~~~~~
   -   To further speed up simulation, consider
          add ++aps on command line
~~~~~~~~~~~~~~~~~~~~~~~~~~~~~~~~~


During simulation, the CPU load for active processors is :
         0 (29.5 %)      1 (5.6 %)       2 (25.6 %)      3 (12.5 %)
         4 (77.0 %)      5 (11.8 %)      6 (100.0 %)     7 (2.0 %)
         8 (3.7 %)       9 (2.5 %)      10 (2.5 %)      
        Total: 273.7%
Initial condition solution time: CPU = 17.946 ms, elapsed = 18.4169 ms.
Intrinsic tran analysis time:    CPU = 494.648 ms, elapsed = 557.467 ms.
Opening mt file: 
        /CASNFSHOME2/home/sstatthoudakis/Documents/spectre/Gates/NOR2/nor_validate/corners/corner_pin1/gate_load/nor_ff.mt4
Total time required for tran analysis `transient5': CPU = 522.763 ms, elapsed =
        631.336 ms, util. = 82.8%.
Time accumulated: CPU = 3.98562 s, elapsed = 8.5654 s.
Peak resident memory used = 150 Mbytes.


*************************
Alter Group `altergroup5'
*************************
Time for altergroup5: CPU = 18.249 ms, elapsed = 18.681 ms.
Time accumulated: CPU = 4.00399 s, elapsed = 8.58538 s.
Peak resident memory used = 150 Mbytes.


*****************************************************
Transient Analysis `transient6': time = (0 s -> 2 ns)
*****************************************************
DC simulation time: CPU = 17.247 ms, elapsed = 17.252 ms.

Notice from spectre during transient analysis `transient6'.
    No outputs were found. Loosening output filter criterion to `allpub'.


Opening the PSFXL file ./nor_ff.raw/transient6.tran.tran ...
Important parameter values:
    start = 0 s
    outputstart = 0 s
    stop = 2 ns
    step = 100 fs
    maxstep = 40 ps
    ic = all
    useprevic = no
    skipdc = no
    reltol = 1e-03
    abstol(V) = 1 uV
    abstol(I) = 1 pA
    temp = 125 C
    tnom = 27 C
    tempeffects = all
    errpreset = moderate
    method = traponly
    lteratio = 3.5
    relref = sigglobal
    cmin = 0 F
    gmin = 1 pS


Output and IC/nodeset summary:
                 probe  2       
                 save   3       (current)
                 save   563     (voltage)

......9......8......7......6.

Notice from spectre at time = 839.752 ps during transient analysis
        `transient6'.
    Found trapezoidal ringing on node nor1_fanout4.nor13.1:A.

......9......8......7......6......5......4......3......2......1......0
Number of accepted tran steps =             197

Notice from spectre during transient analysis `transient6'.
    Trapezoidal ringing is detected during tran analysis.
        Please use method=trap for better results and performance.


Maximum value achieved for any signal of each quantity: 
V: V(nor1_fanout4.nor13.2:Q) = 1.005 V
I: I(VVDD:p) = 112.2 uA
If your circuit contains signals of the same quantity that are vastly different
        in size (such as high voltage circuitry combined with low voltage
        control circuitry), you should consider specifying global option
        `bin_relref=yes'.

~~~~~~~~~~~~~~~~~~~~~~~~~~~~~~~~~
Post-Transient Simulation Summary
~~~~~~~~~~~~~~~~~~~~~~~~~~~~~~~~~
   -   To further speed up simulation, consider
          add ++aps on command line
~~~~~~~~~~~~~~~~~~~~~~~~~~~~~~~~~


During simulation, the CPU load for active processors is :
         0 (27.3 %)      1 (5.7 %)       2 (31.7 %)      3 (11.6 %)
         4 (76.9 %)      5 (10.8 %)      6 (100.0 %)     7 (2.2 %)
         8 (4.2 %)       9 (2.4 %)      10 (2.3 %)      
        Total: 276.0%
Initial condition solution time: CPU = 17.353 ms, elapsed = 18.0089 ms.
Intrinsic tran analysis time:    CPU = 502.192 ms, elapsed = 570.795 ms.
Opening mt file: 
        /CASNFSHOME2/home/sstatthoudakis/Documents/spectre/Gates/NOR2/nor_validate/corners/corner_pin1/gate_load/nor_ff.mt5
Total time required for tran analysis `transient6': CPU = 531.719 ms, elapsed =
        645.238 ms, util. = 82.4%.
Time accumulated: CPU = 4.56365 s, elapsed = 9.3222 s.
Peak resident memory used = 150 Mbytes.


*************************
Alter Group `altergroup6'
*************************
Time for altergroup6: CPU = 19.503 ms, elapsed = 19.907 ms.
Time accumulated: CPU = 4.58326 s, elapsed = 9.34353 s.
Peak resident memory used = 150 Mbytes.


*****************************************************
Transient Analysis `transient7': time = (0 s -> 2 ns)
*****************************************************
DC simulation time: CPU = 17.181 ms, elapsed = 17.185 ms.

Notice from spectre during transient analysis `transient7'.
    No outputs were found. Loosening output filter criterion to `allpub'.


Opening the PSFXL file ./nor_ff.raw/transient7.tran.tran ...
Important parameter values:
    start = 0 s
    outputstart = 0 s
    stop = 2 ns
    step = 100 fs
    maxstep = 40 ps
    ic = all
    useprevic = no
    skipdc = no
    reltol = 1e-03
    abstol(V) = 1 uV
    abstol(I) = 1 pA
    temp = 0 C
    tnom = 27 C
    tempeffects = all
    errpreset = moderate
    method = traponly
    lteratio = 3.5
    relref = sigglobal
    cmin = 0 F
    gmin = 1 pS


Output and IC/nodeset summary:
                 probe  2       
                 save   3       (current)
                 save   563     (voltage)

......9......8......7......6......5......4......3......2......1......0
Number of accepted tran steps =             208

Maximum value achieved for any signal of each quantity: 
V: V(nor10_fanout4.nor13.2:Q) = 1.024 V
I: I(VVDD:p) = 117.2 uA
If your circuit contains signals of the same quantity that are vastly different
        in size (such as high voltage circuitry combined with low voltage
        control circuitry), you should consider specifying global option
        `bin_relref=yes'.

~~~~~~~~~~~~~~~~~~~~~~~~~~~~~~~~~
Post-Transient Simulation Summary
~~~~~~~~~~~~~~~~~~~~~~~~~~~~~~~~~
   -   To further speed up simulation, consider
          add ++aps on command line
~~~~~~~~~~~~~~~~~~~~~~~~~~~~~~~~~


During simulation, the CPU load for active processors is :
         0 (25.4 %)      1 (5.4 %)       2 (37.1 %)      3 (10.8 %)
         4 (77.1 %)      5 (10.8 %)      6 (100.0 %)     7 (2.1 %)
         8 (4.4 %)       9 (2.2 %)      10 (2.1 %)      
        Total: 278.2%
Initial condition solution time: CPU = 17.304 ms, elapsed = 17.8559 ms.
Intrinsic tran analysis time:    CPU = 548.351 ms, elapsed = 610.203 ms.
Opening mt file: 
        /CASNFSHOME2/home/sstatthoudakis/Documents/spectre/Gates/NOR2/nor_validate/corners/corner_pin1/gate_load/nor_ff.mt6
Total time required for tran analysis `transient7': CPU = 573.206 ms, elapsed =
        679.123 ms, util. = 84.4%.
Time accumulated: CPU = 5.18447 s, elapsed = 10.1222 s.
Peak resident memory used = 150 Mbytes.


*************************
Alter Group `altergroup7'
*************************
Time for altergroup7: CPU = 19.421 ms, elapsed = 19.9881 ms.
Time accumulated: CPU = 5.20418 s, elapsed = 10.1448 s.
Peak resident memory used = 150 Mbytes.


*****************************************************
Transient Analysis `transient8': time = (0 s -> 2 ns)
*****************************************************
DC simulation time: CPU = 18.04 ms, elapsed = 18.043 ms.

Notice from spectre during transient analysis `transient8'.
    No outputs were found. Loosening output filter criterion to `allpub'.


Opening the PSFXL file ./nor_ff.raw/transient8.tran.tran ...
Important parameter values:
    start = 0 s
    outputstart = 0 s
    stop = 2 ns
    step = 100 fs
    maxstep = 40 ps
    ic = all
    useprevic = no
    skipdc = no
    reltol = 1e-03
    abstol(V) = 1 uV
    abstol(I) = 1 pA
    temp = 50 C
    tnom = 27 C
    tempeffects = all
    errpreset = moderate
    method = traponly
    lteratio = 3.5
    relref = sigglobal
    cmin = 0 F
    gmin = 1 pS


Output and IC/nodeset summary:
                 probe  2       
                 save   3       (current)
                 save   563     (voltage)

......9......8......7......6.

Notice from spectre at time = 835.469 ps during transient analysis
        `transient8'.
    Found trapezoidal ringing on node nor1_fanout4.nor12.1:A.
Notice from spectre at time = 837.913 ps during transient analysis
        `transient8'.
    Found trapezoidal ringing on node nor1_fanout4.nor12.1:A.

......9......8......7......6......5....

Notice from spectre at time = 1.10908 ns during transient analysis
        `transient8'.
    Found trapezoidal ringing on node nor1_fanout4.nor12.1:A.
Notice from spectre at time = 1.11071 ns during transient analysis
        `transient8'.
    Found trapezoidal ringing on node nor1_fanout4.nor12.1:A.

......9......8......7......6......5......4......3......2......1......0
Number of accepted tran steps =             206

Notice from spectre during transient analysis `transient8'.
    Trapezoidal ringing is detected during tran analysis.
        Please use method=trap for better results and performance.


Maximum value achieved for any signal of each quantity: 
V: V(nor10_fanout4.nor12.2:Q) = 1.02 V
I: I(VVDD:p) = 114.5 uA
If your circuit contains signals of the same quantity that are vastly different
        in size (such as high voltage circuitry combined with low voltage
        control circuitry), you should consider specifying global option
        `bin_relref=yes'.

~~~~~~~~~~~~~~~~~~~~~~~~~~~~~~~~~
Post-Transient Simulation Summary
~~~~~~~~~~~~~~~~~~~~~~~~~~~~~~~~~
   -   To further speed up simulation, consider
          add ++aps on command line
~~~~~~~~~~~~~~~~~~~~~~~~~~~~~~~~~


During simulation, the CPU load for active processors is :
         0 (24.2 %)      1 (5.0 %)       2 (41.8 %)      3 (10.0 %)
         4 (77.1 %)      5 (10.1 %)      6 (100.0 %)     7 (2.0 %)
         8 (4.7 %)       9 (2.2 %)      10 (2.1 %)      
        Total: 279.9%
Initial condition solution time: CPU = 18.146 ms, elapsed = 18.779 ms.
Intrinsic tran analysis time:    CPU = 511.879 ms, elapsed = 595.617 ms.
Opening mt file: 
        /CASNFSHOME2/home/sstatthoudakis/Documents/spectre/Gates/NOR2/nor_validate/corners/corner_pin1/gate_load/nor_ff.mt7
Total time required for tran analysis `transient8': CPU = 537.515 ms, elapsed =
        661.839 ms, util. = 81.2%.
Time accumulated: CPU = 5.75423 s, elapsed = 10.8781 s.
Peak resident memory used = 151 Mbytes.


*************************
Alter Group `altergroup8'
*************************
Time for altergroup8: CPU = 17.407 ms, elapsed = 17.7729 ms.
Time accumulated: CPU = 5.77175 s, elapsed = 10.8972 s.
Peak resident memory used = 151 Mbytes.


*****************************************************
Transient Analysis `transient9': time = (0 s -> 2 ns)
*****************************************************
DC simulation time: CPU = 16.59 ms, elapsed = 16.5918 ms.

Notice from spectre during transient analysis `transient9'.
    No outputs were found. Loosening output filter criterion to `allpub'.


Opening the PSFXL file ./nor_ff.raw/transient9.tran.tran ...
Important parameter values:
    start = 0 s
    outputstart = 0 s
    stop = 2 ns
    step = 100 fs
    maxstep = 40 ps
    ic = all
    useprevic = no
    skipdc = no
    reltol = 1e-03
    abstol(V) = 1 uV
    abstol(I) = 1 pA
    temp = 125 C
    tnom = 27 C
    tempeffects = all
    errpreset = moderate
    method = traponly
    lteratio = 3.5
    relref = sigglobal
    cmin = 0 F
    gmin = 1 pS


Output and IC/nodeset summary:
                 probe  2       
                 save   3       (current)
                 save   563     (voltage)

......9......8......7......6.

Notice from spectre at time = 822.414 ps during transient analysis
        `transient9'.
    Found trapezoidal ringing on node nor1_fanout4.nor11.1:A.
Notice from spectre at time = 824.6 ps during transient analysis `transient9'.
    Found trapezoidal ringing on node nor1_fanout4.nor12.1:A.
Notice from spectre at time = 828.972 ps during transient analysis
        `transient9'.
    Found trapezoidal ringing on node nor1_fanout4.nor12.1:A.

......9......8......7......6......5...

Notice from spectre at time = 1.08904 ns during transient analysis
        `transient9'.
    Found trapezoidal ringing on node nor1_fanout4.nor13.1:A.
Notice from spectre at time = 1.09135 ns during transient analysis
        `transient9'.
    Found trapezoidal ringing on node nor1_fanout4.nor13.1:A.
        Further occurrences of this notice will be suppressed (except in log
        file).

......9......8......7......6......5......4......3......2......1......0
Number of accepted tran steps =             201

Notice from spectre during transient analysis `transient9'.
    Trapezoidal ringing is detected during tran analysis.
        Please use method=trap for better results and performance.


Maximum value achieved for any signal of each quantity: 
V: V(nor1_fanout4.nor13.2:Q) = 1.015 V
I: I(VVDD:p) = 109.6 uA
If your circuit contains signals of the same quantity that are vastly different
        in size (such as high voltage circuitry combined with low voltage
        control circuitry), you should consider specifying global option
        `bin_relref=yes'.

~~~~~~~~~~~~~~~~~~~~~~~~~~~~~~~~~
Post-Transient Simulation Summary
~~~~~~~~~~~~~~~~~~~~~~~~~~~~~~~~~
   -   To further speed up simulation, consider
          add ++aps on command line
~~~~~~~~~~~~~~~~~~~~~~~~~~~~~~~~~


During simulation, the CPU load for active processors is :
         0 (27.3 %)      1 (4.7 %)       2 (45.6 %)      3 (9.5 %)
         4 (72.6 %)      5 (9.4 %)       6 (100.0 %)     7 (2.1 %)
         8 (4.4 %)       9 (2.1 %)      10 (2.1 %)      
        Total: 280.7%
Initial condition solution time: CPU = 16.676 ms, elapsed = 17.077 ms.
Intrinsic tran analysis time:    CPU = 515.058 ms, elapsed = 613.713 ms.
Opening mt file: 
        /CASNFSHOME2/home/sstatthoudakis/Documents/spectre/Gates/NOR2/nor_validate/corners/corner_pin1/gate_load/nor_ff.mt8
Total time required for tran analysis `transient9': CPU = 538.694 ms, elapsed =
        682.695 ms, util. = 78.9%.
Time accumulated: CPU = 6.32237 s, elapsed = 11.669 s.
Peak resident memory used = 151 Mbytes.


Notice from spectre.
    1 notice suppressed.


*************************
Alter Group `altergroup9'
*************************
Time for altergroup9: CPU = 17.454 ms, elapsed = 18.9009 ms.
Time accumulated: CPU = 6.33994 s, elapsed = 11.6895 s.
Peak resident memory used = 151 Mbytes.


******************************************************
Transient Analysis `transient10': time = (0 s -> 2 ns)
******************************************************
DC simulation time: CPU = 16.672 ms, elapsed = 16.6759 ms.

Notice from spectre during transient analysis `transient10'.
    No outputs were found. Loosening output filter criterion to `allpub'.


Opening the PSFXL file ./nor_ff.raw/transient10.tran.tran ...
Important parameter values:
    start = 0 s
    outputstart = 0 s
    stop = 2 ns
    step = 100 fs
    maxstep = 40 ps
    ic = all
    useprevic = no
    skipdc = no
    reltol = 1e-03
    abstol(V) = 1 uV
    abstol(I) = 1 pA
    temp = 0 C
    tnom = 27 C
    tempeffects = all
    errpreset = moderate
    method = traponly
    lteratio = 3.5
    relref = sigglobal
    cmin = 0 F
    gmin = 1 pS


Output and IC/nodeset summary:
                 probe  2       
                 save   3       (current)
                 save   563     (voltage)

......9......8......7......6......5......4......3......2......1......0
Number of accepted tran steps =             212

Maximum value achieved for any signal of each quantity: 
V: V(nor10_fanout4.nor13.2:Q) = 1.034 V
I: I(VVDD:p) = 116 uA
If your circuit contains signals of the same quantity that are vastly different
        in size (such as high voltage circuitry combined with low voltage
        control circuitry), you should consider specifying global option
        `bin_relref=yes'.

~~~~~~~~~~~~~~~~~~~~~~~~~~~~~~~~~
Post-Transient Simulation Summary
~~~~~~~~~~~~~~~~~~~~~~~~~~~~~~~~~
   -   To further speed up simulation, consider
          add ++aps on command line
~~~~~~~~~~~~~~~~~~~~~~~~~~~~~~~~~


During simulation, the CPU load for active processors is :
         0 (30.5 %)      1 (4.5 %)       2 (49.2 %)      3 (8.9 %)
         4 (67.8 %)      5 (8.9 %)       6 (100.0 %)     7 (2.0 %)
         8 (4.2 %)       9 (2.4 %)      10 (2.0 %)      11 (1.1 %)
        Total: 281.6%
Initial condition solution time: CPU = 16.764 ms, elapsed = 17.5669 ms.
Intrinsic tran analysis time:    CPU = 562.041 ms, elapsed = 637.24 ms.
Opening mt file: 
        /CASNFSHOME2/home/sstatthoudakis/Documents/spectre/Gates/NOR2/nor_validate/corners/corner_pin1/gate_load/nor_ff.mt9
Total time required for tran analysis `transient10': CPU = 588.759 ms, elapsed
        = 710.295 ms, util. = 82.9%.
Time accumulated: CPU = 6.94435 s, elapsed = 12.5013 s.
Peak resident memory used = 151 Mbytes.


**************************
Alter Group `altergroup10'
**************************
Time for altergroup10: CPU = 17.668 ms, elapsed = 18.28 ms.
Time accumulated: CPU = 6.96214 s, elapsed = 12.5215 s.
Peak resident memory used = 151 Mbytes.


******************************************************
Transient Analysis `transient11': time = (0 s -> 2 ns)
******************************************************
DC simulation time: CPU = 17.749 ms, elapsed = 17.7519 ms.

Notice from spectre during transient analysis `transient11'.
    No outputs were found. Loosening output filter criterion to `allpub'.


Opening the PSFXL file ./nor_ff.raw/transient11.tran.tran ...
Important parameter values:
    start = 0 s
    outputstart = 0 s
    stop = 2 ns
    step = 100 fs
    maxstep = 40 ps
    ic = all
    useprevic = no
    skipdc = no
    reltol = 1e-03
    abstol(V) = 1 uV
    abstol(I) = 1 pA
    temp = 50 C
    tnom = 27 C
    tempeffects = all
    errpreset = moderate
    method = traponly
    lteratio = 3.5
    relref = sigglobal
    cmin = 0 F
    gmin = 1 pS


Output and IC/nodeset summary:
                 probe  2       
                 save   3       (current)
                 save   563     (voltage)

......9......8......7......6......5......4......3......2......1......0
Number of accepted tran steps =             206

Maximum value achieved for any signal of each quantity: 
V: V(nor10_fanout4.nor13.2:Q) = 1.03 V
I: I(VVDD:p) = 113.4 uA
If your circuit contains signals of the same quantity that are vastly different
        in size (such as high voltage circuitry combined with low voltage
        control circuitry), you should consider specifying global option
        `bin_relref=yes'.

~~~~~~~~~~~~~~~~~~~~~~~~~~~~~~~~~
Post-Transient Simulation Summary
~~~~~~~~~~~~~~~~~~~~~~~~~~~~~~~~~
   -   To further speed up simulation, consider
          add ++aps on command line
~~~~~~~~~~~~~~~~~~~~~~~~~~~~~~~~~


During simulation, the CPU load for active processors is :
         0 (33.3 %)      1 (4.5 %)       2 (52.3 %)      3 (8.7 %)
         4 (63.7 %)      5 (8.4 %)       6 (100.0 %)     7 (2.1 %)
         8 (4.2 %)       9 (2.3 %)      10 (1.9 %)      11 (1.5 %)
        Total: 282.8%
Initial condition solution time: CPU = 17.842 ms, elapsed = 18.569 ms.
Intrinsic tran analysis time:    CPU = 525.227 ms, elapsed = 595.728 ms.
Opening mt file: 
        /CASNFSHOME2/home/sstatthoudakis/Documents/spectre/Gates/NOR2/nor_validate/corners/corner_pin1/gate_load/nor_ff.mt10
Total time required for tran analysis `transient11': CPU = 550.707 ms, elapsed
        = 666.768 ms, util. = 82.6%.
Time accumulated: CPU = 7.52552 s, elapsed = 13.27 s.
Peak resident memory used = 151 Mbytes.


**************************
Alter Group `altergroup11'
**************************
Time for altergroup11: CPU = 17.978 ms, elapsed = 18.302 ms.
Time accumulated: CPU = 7.54362 s, elapsed = 13.2897 s.
Peak resident memory used = 151 Mbytes.


******************************************************
Transient Analysis `transient12': time = (0 s -> 2 ns)
******************************************************
DC simulation time: CPU = 16.753 ms, elapsed = 16.7561 ms.

Notice from spectre during transient analysis `transient12'.
    No outputs were found. Loosening output filter criterion to `allpub'.


Opening the PSFXL file ./nor_ff.raw/transient12.tran.tran ...
Important parameter values:
    start = 0 s
    outputstart = 0 s
    stop = 2 ns
    step = 100 fs
    maxstep = 40 ps
    ic = all
    useprevic = no
    skipdc = no
    reltol = 1e-03
    abstol(V) = 1 uV
    abstol(I) = 1 pA
    temp = 125 C
    tnom = 27 C
    tempeffects = all
    errpreset = moderate
    method = traponly
    lteratio = 3.5
    relref = sigglobal
    cmin = 0 F
    gmin = 1 pS


Output and IC/nodeset summary:
                 probe  2       
                 save   3       (current)
                 save   563     (voltage)

......9......8......7......6

Notice from spectre at time = 809.788 ps during transient analysis
        `transient12'.
    Found trapezoidal ringing on node nor1_fanout4.nor12.1:A.
Notice from spectre at time = 811.55 ps during transient analysis
        `transient12'.
    Found trapezoidal ringing on node nor1_fanout4.nor12.1:A.
Notice from spectre at time = 815.074 ps during transient analysis
        `transient12'.
    Found trapezoidal ringing on node nor1_fanout4.nor12.1:A.

......9......8......7......6......5......4......3......2......1......0
Number of accepted tran steps =             205

Notice from spectre during transient analysis `transient12'.
    Trapezoidal ringing is detected during tran analysis.
        Please use method=trap for better results and performance.


Maximum value achieved for any signal of each quantity: 
V: V(nor10_fanout4.nor13.2:Q) = 1.025 V
I: I(VVDD:p) = 109.5 uA
If your circuit contains signals of the same quantity that are vastly different
        in size (such as high voltage circuitry combined with low voltage
        control circuitry), you should consider specifying global option
        `bin_relref=yes'.

~~~~~~~~~~~~~~~~~~~~~~~~~~~~~~~~~
Post-Transient Simulation Summary
~~~~~~~~~~~~~~~~~~~~~~~~~~~~~~~~~
   -   To further speed up simulation, consider
          add ++aps on command line
~~~~~~~~~~~~~~~~~~~~~~~~~~~~~~~~~


During simulation, the CPU load for active processors is :
         0 (35.7 %)      1 (4.3 %)       2 (54.9 %)      3 (8.2 %)
         4 (60.2 %)      5 (8.0 %)       6 (100.0 %)     7 (2.0 %)
         8 (4.0 %)       9 (2.2 %)      10 (2.0 %)      11 (1.5 %)
        Total: 283.0%
Initial condition solution time: CPU = 16.843 ms, elapsed = 17.276 ms.
Intrinsic tran analysis time:    CPU = 518.773 ms, elapsed = 589.431 ms.
Opening mt file: 
        /CASNFSHOME2/home/sstatthoudakis/Documents/spectre/Gates/NOR2/nor_validate/corners/corner_pin1/gate_load/nor_ff.mt11
Total time required for tran analysis `transient12': CPU = 542.544 ms, elapsed
        = 656.367 ms, util. = 82.7%.
Time accumulated: CPU = 8.09912 s, elapsed = 14.021 s.
Peak resident memory used = 151 Mbytes.


**************************
Alter Group `altergroup12'
**************************
Time for altergroup12: CPU = 18.16 ms, elapsed = 18.5938 ms.
Time accumulated: CPU = 8.11738 s, elapsed = 14.0407 s.
Peak resident memory used = 151 Mbytes.


******************************************************
Transient Analysis `transient13': time = (0 s -> 2 ns)
******************************************************
DC simulation time: CPU = 17.039 ms, elapsed = 17.0429 ms.

Notice from spectre during transient analysis `transient13'.
    No outputs were found. Loosening output filter criterion to `allpub'.


Opening the PSFXL file ./nor_ff.raw/transient13.tran.tran ...
Important parameter values:
    start = 0 s
    outputstart = 0 s
    stop = 2 ns
    step = 100 fs
    maxstep = 40 ps
    ic = all
    useprevic = no
    skipdc = no
    reltol = 1e-03
    abstol(V) = 1 uV
    abstol(I) = 1 pA
    temp = 0 C
    tnom = 27 C
    tempeffects = all
    errpreset = moderate
    method = traponly
    lteratio = 3.5
    relref = sigglobal
    cmin = 0 F
    gmin = 1 pS


Output and IC/nodeset summary:
                 probe  2       
                 save   3       (current)
                 save   563     (voltage)

......9......8......7......6......5......4......3......2......1......0
Number of accepted tran steps =             218

Maximum value achieved for any signal of each quantity: 
V: V(nor10_fanout4.nor13.2:Q) = 1.044 V
I: I(VGND:p) = 117.1 uA
If your circuit contains signals of the same quantity that are vastly different
        in size (such as high voltage circuitry combined with low voltage
        control circuitry), you should consider specifying global option
        `bin_relref=yes'.

~~~~~~~~~~~~~~~~~~~~~~~~~~~~~~~~~
Post-Transient Simulation Summary
~~~~~~~~~~~~~~~~~~~~~~~~~~~~~~~~~
   -   To further speed up simulation, consider
          add ++aps on command line
~~~~~~~~~~~~~~~~~~~~~~~~~~~~~~~~~


During simulation, the CPU load for active processors is :
         0 (38.1 %)      1 (4.3 %)       2 (57.3 %)      3 (8.0 %)
         4 (57.2 %)      5 (7.7 %)       6 (100.0 %)     7 (1.9 %)
         8 (4.0 %)       9 (2.2 %)      10 (1.9 %)      11 (1.5 %)
        Total: 284.1%
Initial condition solution time: CPU = 17.147 ms, elapsed = 17.688 ms.
Intrinsic tran analysis time:    CPU = 571.541 ms, elapsed = 627.249 ms.
Opening mt file: 
        /CASNFSHOME2/home/sstatthoudakis/Documents/spectre/Gates/NOR2/nor_validate/corners/corner_pin1/gate_load/nor_ff.mt12
Total time required for tran analysis `transient13': CPU = 596.124 ms, elapsed
        = 689.385 ms, util. = 86.5%.
Time accumulated: CPU = 8.7268 s, elapsed = 14.8071 s.
Peak resident memory used = 151 Mbytes.


**************************
Alter Group `altergroup13'
**************************
Time for altergroup13: CPU = 17.923 ms, elapsed = 18.3251 ms.
Time accumulated: CPU = 8.74484 s, elapsed = 14.8304 s.
Peak resident memory used = 151 Mbytes.


******************************************************
Transient Analysis `transient14': time = (0 s -> 2 ns)
******************************************************
DC simulation time: CPU = 17.016 ms, elapsed = 17.0188 ms.

Notice from spectre during transient analysis `transient14'.
    No outputs were found. Loosening output filter criterion to `allpub'.


Opening the PSFXL file ./nor_ff.raw/transient14.tran.tran ...
Important parameter values:
    start = 0 s
    outputstart = 0 s
    stop = 2 ns
    step = 100 fs
    maxstep = 40 ps
    ic = all
    useprevic = no
    skipdc = no
    reltol = 1e-03
    abstol(V) = 1 uV
    abstol(I) = 1 pA
    temp = 50 C
    tnom = 27 C
    tempeffects = all
    errpreset = moderate
    method = traponly
    lteratio = 3.5
    relref = sigglobal
    cmin = 0 F
    gmin = 1 pS


Output and IC/nodeset summary:
                 probe  2       
                 save   3       (current)
                 save   563     (voltage)

......9......8......7......6

Notice from spectre at time = 807.19 ps during transient analysis
        `transient14'.
    Found trapezoidal ringing on node nor1_fanout4.nor13.1:A.
Notice from spectre at time = 808.937 ps during transient analysis
        `transient14'.
    Found trapezoidal ringing on node nor1_fanout4.nor13.1:A.

......9......8......7......6......5..

Notice from spectre at time = 1.07023 ns during transient analysis
        `transient14'.
    Found trapezoidal ringing on node nor1_fanout4.nor13.1:A.
Notice from spectre at time = 1.07217 ns during transient analysis
        `transient14'.
    Found trapezoidal ringing on node nor1_fanout4.nor13.1:A.

......9......8......7......6......5......4......3......2......1......0
Number of accepted tran steps =             213

Notice from spectre during transient analysis `transient14'.
    Trapezoidal ringing is detected during tran analysis.
        Please use method=trap for better results and performance.


Maximum value achieved for any signal of each quantity: 
V: V(nor10_fanout4.nor11.2:Q) = 1.04 V
I: I(VVDD:p) = 113.4 uA
If your circuit contains signals of the same quantity that are vastly different
        in size (such as high voltage circuitry combined with low voltage
        control circuitry), you should consider specifying global option
        `bin_relref=yes'.

~~~~~~~~~~~~~~~~~~~~~~~~~~~~~~~~~
Post-Transient Simulation Summary
~~~~~~~~~~~~~~~~~~~~~~~~~~~~~~~~~
   -   To further speed up simulation, consider
          add ++aps on command line
~~~~~~~~~~~~~~~~~~~~~~~~~~~~~~~~~


During simulation, the CPU load for active processors is :
         0 (40.1 %)      1 (4.2 %)       2 (59.5 %)      3 (7.6 %)
         4 (54.4 %)      5 (7.4 %)       6 (100.0 %)     7 (1.9 %)
         8 (3.8 %)       9 (2.1 %)      10 (1.8 %)      11 (1.5 %)
        Total: 284.3%
Initial condition solution time: CPU = 17.116 ms, elapsed = 17.7171 ms.
Intrinsic tran analysis time:    CPU = 530.58 ms, elapsed = 606.555 ms.
Opening mt file: 
        /CASNFSHOME2/home/sstatthoudakis/Documents/spectre/Gates/NOR2/nor_validate/corners/corner_pin1/gate_load/nor_ff.mt13
Total time required for tran analysis `transient14': CPU = 555.228 ms, elapsed
        = 674.14 ms, util. = 82.4%.
Time accumulated: CPU = 9.31311 s, elapsed = 15.5841 s.
Peak resident memory used = 151 Mbytes.


**************************
Alter Group `altergroup14'
**************************
Time for altergroup14: CPU = 17.688 ms, elapsed = 18.059 ms.
Time accumulated: CPU = 9.3309 s, elapsed = 15.6036 s.
Peak resident memory used = 151 Mbytes.


******************************************************
Transient Analysis `transient15': time = (0 s -> 2 ns)
******************************************************
DC simulation time: CPU = 16.875 ms, elapsed = 16.8781 ms.

Notice from spectre during transient analysis `transient15'.
    No outputs were found. Loosening output filter criterion to `allpub'.


Opening the PSFXL file ./nor_ff.raw/transient15.tran.tran ...
Important parameter values:
    start = 0 s
    outputstart = 0 s
    stop = 2 ns
    step = 100 fs
    maxstep = 40 ps
    ic = all
    useprevic = no
    skipdc = no
    reltol = 1e-03
    abstol(V) = 1 uV
    abstol(I) = 1 pA
    temp = 125 C
    tnom = 27 C
    tempeffects = all
    errpreset = moderate
    method = traponly
    lteratio = 3.5
    relref = sigglobal
    cmin = 0 F
    gmin = 1 pS


Output and IC/nodeset summary:
                 probe  2       
                 save   3       (current)
                 save   563     (voltage)

......9......8......7......6

Notice from spectre at time = 798.453 ps during transient analysis
        `transient15'.
    Found trapezoidal ringing on node nor1_fanout4.nor13.1:A.
Notice from spectre at time = 801.356 ps during transient analysis
        `transient15'.
    Found trapezoidal ringing on node nor1_fanout4.nor13.1:A.

......9......8......7......6......5..

Notice from spectre at time = 1.05512 ns during transient analysis
        `transient15'.
    Found trapezoidal ringing on node nor1_fanout4.nor13.1:A.
Notice from spectre at time = 1.0571 ns during transient analysis
        `transient15'.
    Found trapezoidal ringing on node nor1_fanout4.nor13.1:A.
Notice from spectre at time = 1.06106 ns during transient analysis
        `transient15'.
    Found trapezoidal ringing on node nor1_fanout4.nor13.1:A.
        Further occurrences of this notice will be suppressed (except in log
        file).

......9......8......7......6......5......4......3......2......1......0
Number of accepted tran steps =             208

Notice from spectre during transient analysis `transient15'.
    Trapezoidal ringing is detected during tran analysis.
        Please use method=trap for better results and performance.


Maximum value achieved for any signal of each quantity: 
V: V(nor10_fanout4.nor13.2:Q) = 1.035 V
I: I(VGND:p) = 110.3 uA
If your circuit contains signals of the same quantity that are vastly different
        in size (such as high voltage circuitry combined with low voltage
        control circuitry), you should consider specifying global option
        `bin_relref=yes'.

~~~~~~~~~~~~~~~~~~~~~~~~~~~~~~~~~
Post-Transient Simulation Summary
~~~~~~~~~~~~~~~~~~~~~~~~~~~~~~~~~
   -   To further speed up simulation, consider
          add ++aps on command line
~~~~~~~~~~~~~~~~~~~~~~~~~~~~~~~~~


During simulation, the CPU load for active processors is :
         0 (41.8 %)      1 (4.2 %)       2 (61.5 %)      3 (7.5 %)
         4 (51.8 %)      5 (7.2 %)       6 (100.0 %)     7 (1.9 %)
         8 (3.6 %)       9 (2.1 %)      10 (1.8 %)      11 (1.4 %)
        Total: 284.8%
Initial condition solution time: CPU = 16.967 ms, elapsed = 17.725 ms.
Intrinsic tran analysis time:    CPU = 527.78 ms, elapsed = 637.37 ms.
Opening mt file: 
        /CASNFSHOME2/home/sstatthoudakis/Documents/spectre/Gates/NOR2/nor_validate/corners/corner_pin1/gate_load/nor_ff.mt14
Total time required for tran analysis `transient15': CPU = 551.827 ms, elapsed
        = 678.1 ms, util. = 81.4%.
Time accumulated: CPU = 9.89451 s, elapsed = 16.3522 s.
Peak resident memory used = 151 Mbytes.


**************************
Alter Group `altergroup15'
**************************
Time for altergroup15: CPU = 21.362 ms, elapsed = 21.6432 ms.
Time accumulated: CPU = 9.91599 s, elapsed = 16.375 s.
Peak resident memory used = 151 Mbytes.


******************************************************
Transient Analysis `transient16': time = (0 s -> 2 ns)
******************************************************
DC simulation time: CPU = 18.232 ms, elapsed = 18.234 ms.

Notice from spectre during transient analysis `transient16'.
    No outputs were found. Loosening output filter criterion to `allpub'.


Opening the PSFXL file ./nor_ff.raw/transient16.tran.tran ...
Important parameter values:
    start = 0 s
    outputstart = 0 s
    stop = 2 ns
    step = 100 fs
    maxstep = 40 ps
    ic = all
    useprevic = no
    skipdc = no
    reltol = 1e-03
    abstol(V) = 1 uV
    abstol(I) = 1 pA
    temp = 0 C
    tnom = 27 C
    tempeffects = all
    errpreset = moderate
    method = traponly
    lteratio = 3.5
    relref = sigglobal
    cmin = 0 F
    gmin = 1 pS


Output and IC/nodeset summary:
                 probe  2       
                 save   3       (current)
                 save   563     (voltage)

......9......8......7......6......5......4......3......2......1......0
Number of accepted tran steps =             227

Maximum value achieved for any signal of each quantity: 
V: V(nor10_fanout4.nor13.2:Q) = 1.054 V
I: I(VGND:p) = 120.7 uA
If your circuit contains signals of the same quantity that are vastly different
        in size (such as high voltage circuitry combined with low voltage
        control circuitry), you should consider specifying global option
        `bin_relref=yes'.

~~~~~~~~~~~~~~~~~~~~~~~~~~~~~~~~~
Post-Transient Simulation Summary
~~~~~~~~~~~~~~~~~~~~~~~~~~~~~~~~~
   -   To further speed up simulation, consider
          add ++aps on command line
~~~~~~~~~~~~~~~~~~~~~~~~~~~~~~~~~


During simulation, the CPU load for active processors is :
         0 (43.8 %)      1 (4.0 %)       2 (63.3 %)      3 (7.2 %)
         4 (49.3 %)      5 (7.0 %)       6 (100.0 %)     7 (1.9 %)
         8 (3.5 %)       9 (2.0 %)      10 (1.8 %)      11 (1.4 %)
        Total: 285.1%
Initial condition solution time: CPU = 18.339 ms, elapsed = 18.9481 ms.
Intrinsic tran analysis time:    CPU = 622.19 ms, elapsed = 690.342 ms.
Opening mt file: 
        /CASNFSHOME2/home/sstatthoudakis/Documents/spectre/Gates/NOR2/nor_validate/corners/corner_pin1/gate_load/nor_ff.mt15
Total time required for tran analysis `transient16': CPU = 648.071 ms, elapsed
        = 762.088 ms, util. = 85%.
Time accumulated: CPU = 10.5768 s, elapsed = 17.2276 s.
Peak resident memory used = 151 Mbytes.


**************************
Alter Group `altergroup16'
**************************
Time for altergroup16: CPU = 17.92 ms, elapsed = 18.209 ms.
Time accumulated: CPU = 10.5948 s, elapsed = 17.2472 s.
Peak resident memory used = 151 Mbytes.


******************************************************
Transient Analysis `transient17': time = (0 s -> 2 ns)
******************************************************
DC simulation time: CPU = 16.644 ms, elapsed = 16.6459 ms.

Notice from spectre during transient analysis `transient17'.
    No outputs were found. Loosening output filter criterion to `allpub'.


Opening the PSFXL file ./nor_ff.raw/transient17.tran.tran ...
Important parameter values:
    start = 0 s
    outputstart = 0 s
    stop = 2 ns
    step = 100 fs
    maxstep = 40 ps
    ic = all
    useprevic = no
    skipdc = no
    reltol = 1e-03
    abstol(V) = 1 uV
    abstol(I) = 1 pA
    temp = 50 C
    tnom = 27 C
    tempeffects = all
    errpreset = moderate
    method = traponly
    lteratio = 3.5
    relref = sigglobal
    cmin = 0 F
    gmin = 1 pS


Output and IC/nodeset summary:
                 probe  2       
                 save   3       (current)
                 save   563     (voltage)

......9......8......7......6......5......4......3......2......1......0
Number of accepted tran steps =             216

Maximum value achieved for any signal of each quantity: 
V: V(nor10_fanout4.nor13.2:Q) = 1.051 V
I: I(VGND:p) = 116.1 uA
If your circuit contains signals of the same quantity that are vastly different
        in size (such as high voltage circuitry combined with low voltage
        control circuitry), you should consider specifying global option
        `bin_relref=yes'.

~~~~~~~~~~~~~~~~~~~~~~~~~~~~~~~~~
Post-Transient Simulation Summary
~~~~~~~~~~~~~~~~~~~~~~~~~~~~~~~~~
   -   To further speed up simulation, consider
          add ++aps on command line
~~~~~~~~~~~~~~~~~~~~~~~~~~~~~~~~~


During simulation, the CPU load for active processors is :
         0 (42.5 %)      1 (4.1 %)       2 (64.9 %)      3 (7.0 %)
         4 (47.2 %)      5 (9.8 %)       6 (100.0 %)     7 (2.0 %)
         8 (3.5 %)       9 (2.1 %)      10 (1.8 %)      11 (1.3 %)
        Total: 286.3%
Initial condition solution time: CPU = 16.733 ms, elapsed = 17.1092 ms.
Intrinsic tran analysis time:    CPU = 555.306 ms, elapsed = 615.81 ms.
Opening mt file: 
        /CASNFSHOME2/home/sstatthoudakis/Documents/spectre/Gates/NOR2/nor_validate/corners/corner_pin1/gate_load/nor_ff.mt16
Total time required for tran analysis `transient17': CPU = 579.088 ms, elapsed
        = 681.377 ms, util. = 85%.
Time accumulated: CPU = 11.1891 s, elapsed = 18.0193 s.
Peak resident memory used = 151 Mbytes.


**************************
Alter Group `altergroup17'
**************************
Time for altergroup17: CPU = 18.174 ms, elapsed = 18.5051 ms.
Time accumulated: CPU = 11.2073 s, elapsed = 18.0396 s.
Peak resident memory used = 151 Mbytes.


******************************************************
Transient Analysis `transient18': time = (0 s -> 2 ns)
******************************************************
DC simulation time: CPU = 16.838 ms, elapsed = 16.8412 ms.

Notice from spectre during transient analysis `transient18'.
    No outputs were found. Loosening output filter criterion to `allpub'.


Opening the PSFXL file ./nor_ff.raw/transient18.tran.tran ...
Important parameter values:
    start = 0 s
    outputstart = 0 s
    stop = 2 ns
    step = 100 fs
    maxstep = 40 ps
    ic = all
    useprevic = no
    skipdc = no
    reltol = 1e-03
    abstol(V) = 1 uV
    abstol(I) = 1 pA
    temp = 125 C
    tnom = 27 C
    tempeffects = all
    errpreset = moderate
    method = traponly
    lteratio = 3.5
    relref = sigglobal
    cmin = 0 F
    gmin = 1 pS


Output and IC/nodeset summary:
                 probe  2       
                 save   3       (current)
                 save   563     (voltage)

......9......8......7......

Notice from spectre at time = 786.279 ps during transient analysis
        `transient18'.
    Found trapezoidal ringing on node nor1_fanout4.nor11.1:A.

......9......8......7......6

Notice from spectre at time = 787.896 ps during transient analysis
        `transient18'.
    Found trapezoidal ringing on node nor1_fanout4.nor11.1:A.
Notice from spectre at time = 791.13 ps during transient analysis
        `transient18'.
    Found trapezoidal ringing on node nor1_fanout4.nor11.1:A.

......9......8......7......6......5......4......3......2......1......0
Number of accepted tran steps =             209

Notice from spectre during transient analysis `transient18'.
    Trapezoidal ringing is detected during tran analysis.
        Please use method=trap for better results and performance.


Maximum value achieved for any signal of each quantity: 
V: V(nor10_fanout4.nor13.2:Q) = 1.046 V
I: I(VGND:p) = 113.2 uA
If your circuit contains signals of the same quantity that are vastly different
        in size (such as high voltage circuitry combined with low voltage
        control circuitry), you should consider specifying global option
        `bin_relref=yes'.

~~~~~~~~~~~~~~~~~~~~~~~~~~~~~~~~~
Post-Transient Simulation Summary
~~~~~~~~~~~~~~~~~~~~~~~~~~~~~~~~~
   -   To further speed up simulation, consider
          add ++aps on command line
~~~~~~~~~~~~~~~~~~~~~~~~~~~~~~~~~


During simulation, the CPU load for active processors is :
         0 (40.7 %)      1 (4.1 %)       2 (66.4 %)      3 (6.9 %)
         4 (45.2 %)      5 (12.6 %)      6 (100.0 %)     7 (2.0 %)
         8 (3.8 %)       9 (2.0 %)      10 (1.7 %)      11 (1.3 %)
        Total: 286.7%
Initial condition solution time: CPU = 16.942 ms, elapsed = 17.74 ms.
Intrinsic tran analysis time:    CPU = 532.046 ms, elapsed = 611.567 ms.
Opening mt file: 
        /CASNFSHOME2/home/sstatthoudakis/Documents/spectre/Gates/NOR2/nor_validate/corners/corner_pin1/gate_load/nor_ff.mt17
Total time required for tran analysis `transient18': CPU = 556.267 ms, elapsed
        = 680.841 ms, util. = 81.7%.
Time accumulated: CPU = 11.7777 s, elapsed = 18.8015 s.
Peak resident memory used = 151 Mbytes.


**************************
Alter Group `altergroup18'
**************************
Time for altergroup18: CPU = 22.579 ms, elapsed = 23.0491 ms.
Time accumulated: CPU = 11.8005 s, elapsed = 18.8263 s.
Peak resident memory used = 151 Mbytes.


******************************************************
Transient Analysis `transient19': time = (0 s -> 2 ns)
******************************************************
DC simulation time: CPU = 20.206 ms, elapsed = 20.21 ms.

Notice from spectre during transient analysis `transient19'.
    No outputs were found. Loosening output filter criterion to `allpub'.


Opening the PSFXL file ./nor_ff.raw/transient19.tran.tran ...
Important parameter values:
    start = 0 s
    outputstart = 0 s
    stop = 2 ns
    step = 100 fs
    maxstep = 40 ps
    ic = all
    useprevic = no
    skipdc = no
    reltol = 1e-03
    abstol(V) = 1 uV
    abstol(I) = 1 pA
    temp = 0 C
    tnom = 27 C
    tempeffects = all
    errpreset = moderate
    method = traponly
    lteratio = 3.5
    relref = sigglobal
    cmin = 0 F
    gmin = 1 pS


Output and IC/nodeset summary:
                 probe  2       
                 save   3       (current)
                 save   563     (voltage)

......9......8......7......6......5......4......3......2......1......0
Number of accepted tran steps =             227

Maximum value achieved for any signal of each quantity: 
V: V(nor10_fanout4.nor13.2:Q) = 1.065 V
I: I(VGND:p) = 124.3 uA
If your circuit contains signals of the same quantity that are vastly different
        in size (such as high voltage circuitry combined with low voltage
        control circuitry), you should consider specifying global option
        `bin_relref=yes'.

~~~~~~~~~~~~~~~~~~~~~~~~~~~~~~~~~
Post-Transient Simulation Summary
~~~~~~~~~~~~~~~~~~~~~~~~~~~~~~~~~
   -   To further speed up simulation, consider
          add ++aps on command line
~~~~~~~~~~~~~~~~~~~~~~~~~~~~~~~~~


During simulation, the CPU load for active processors is :
         0 (38.9 %)      1 (4.0 %)       2 (67.9 %)      3 (6.9 %)
         4 (43.4 %)      5 (15.5 %)      6 (100.0 %)     7 (2.0 %)
         8 (3.8 %)       9 (2.0 %)      10 (1.6 %)      11 (1.2 %)
        Total: 287.2%
Initial condition solution time: CPU = 20.318 ms, elapsed = 21.086 ms.
Intrinsic tran analysis time:    CPU = 610.006 ms, elapsed = 685.603 ms.
Opening mt file: 
        /CASNFSHOME2/home/sstatthoudakis/Documents/spectre/Gates/NOR2/nor_validate/corners/corner_pin1/gate_load/nor_ff.mt18
Total time required for tran analysis `transient19': CPU = 638.677 ms, elapsed
        = 759.708 ms, util. = 84.1%.
Time accumulated: CPU = 12.4561 s, elapsed = 19.6792 s.
Peak resident memory used = 151 Mbytes.


**************************
Alter Group `altergroup19'
**************************
Time for altergroup19: CPU = 21.312 ms, elapsed = 21.6901 ms.
Time accumulated: CPU = 12.4775 s, elapsed = 19.7023 s.
Peak resident memory used = 151 Mbytes.


******************************************************
Transient Analysis `transient20': time = (0 s -> 2 ns)
******************************************************
DC simulation time: CPU = 20.124 ms, elapsed = 20.1271 ms.

Notice from spectre during transient analysis `transient20'.
    No outputs were found. Loosening output filter criterion to `allpub'.


Opening the PSFXL file ./nor_ff.raw/transient20.tran.tran ...
Important parameter values:
    start = 0 s
    outputstart = 0 s
    stop = 2 ns
    step = 100 fs
    maxstep = 40 ps
    ic = all
    useprevic = no
    skipdc = no
    reltol = 1e-03
    abstol(V) = 1 uV
    abstol(I) = 1 pA
    temp = 50 C
    tnom = 27 C
    tempeffects = all
    errpreset = moderate
    method = traponly
    lteratio = 3.5
    relref = sigglobal
    cmin = 0 F
    gmin = 1 pS


Output and IC/nodeset summary:
                 probe  2       
                 save   3       (current)
                 save   563     (voltage)

......9......8......7......

Notice from spectre at time = 781.283 ps during transient analysis
        `transient20'.
    Found trapezoidal ringing on node nor2_fanout4.nor13.1:Q.

......9......8......7......6......5......4......3......2......1......0
Number of accepted tran steps =             216

Notice from spectre during transient analysis `transient20'.
    Trapezoidal ringing is detected during tran analysis.
        Please use method=trap for better results and performance.


Maximum value achieved for any signal of each quantity: 
V: V(nor10_fanout4.nor11.2:Q) = 1.061 V
I: I(VGND:p) = 119.4 uA
If your circuit contains signals of the same quantity that are vastly different
        in size (such as high voltage circuitry combined with low voltage
        control circuitry), you should consider specifying global option
        `bin_relref=yes'.

~~~~~~~~~~~~~~~~~~~~~~~~~~~~~~~~~
Post-Transient Simulation Summary
~~~~~~~~~~~~~~~~~~~~~~~~~~~~~~~~~
   -   To further speed up simulation, consider
          add ++aps on command line
~~~~~~~~~~~~~~~~~~~~~~~~~~~~~~~~~


During simulation, the CPU load for active processors is :
         0 (37.3 %)      1 (3.9 %)       2 (69.2 %)      3 (6.7 %)
         4 (41.8 %)      5 (18.0 %)      6 (100.0 %)     7 (2.1 %)
         8 (3.9 %)       9 (2.0 %)      10 (1.6 %)      11 (1.2 %)
        Total: 287.7%
Initial condition solution time: CPU = 20.23 ms, elapsed = 20.741 ms.
Intrinsic tran analysis time:    CPU = 549.563 ms, elapsed = 629.701 ms.
Opening mt file: 
        /CASNFSHOME2/home/sstatthoudakis/Documents/spectre/Gates/NOR2/nor_validate/corners/corner_pin1/gate_load/nor_ff.mt19
Total time required for tran analysis `transient20': CPU = 578.109 ms, elapsed
        = 700.507 ms, util. = 82.5%.
Time accumulated: CPU = 13.0721 s, elapsed = 20.4896 s.
Peak resident memory used = 151 Mbytes.


**************************
Alter Group `altergroup20'
**************************
Time for altergroup20: CPU = 19.3 ms, elapsed = 19.8121 ms.
Time accumulated: CPU = 13.0916 s, elapsed = 20.5108 s.
Peak resident memory used = 151 Mbytes.


******************************************************
Transient Analysis `transient21': time = (0 s -> 2 ns)
******************************************************
DC simulation time: CPU = 17.392 ms, elapsed = 17.395 ms.

Notice from spectre during transient analysis `transient21'.
    No outputs were found. Loosening output filter criterion to `allpub'.


Opening the PSFXL file ./nor_ff.raw/transient21.tran.tran ...
Important parameter values:
    start = 0 s
    outputstart = 0 s
    stop = 2 ns
    step = 100 fs
    maxstep = 40 ps
    ic = all
    useprevic = no
    skipdc = no
    reltol = 1e-03
    abstol(V) = 1 uV
    abstol(I) = 1 pA
    temp = 125 C
    tnom = 27 C
    tempeffects = all
    errpreset = moderate
    method = traponly
    lteratio = 3.5
    relref = sigglobal
    cmin = 0 F
    gmin = 1 pS


Output and IC/nodeset summary:
                 probe  2       
                 save   3       (current)
                 save   563     (voltage)

......9......8......7......

Notice from spectre at time = 775.554 ps during transient analysis
        `transient21'.
    Found trapezoidal ringing on node nor1_fanout4.nor11.1:A.
Notice from spectre at time = 777.804 ps during transient analysis
        `transient21'.
    Found trapezoidal ringing on node nor1_fanout4.nor11.1:A.

......9......8......7......6......5......4......3......2......1......0
Number of accepted tran steps =             213

Notice from spectre during transient analysis `transient21'.
    Trapezoidal ringing is detected during tran analysis.
        Please use method=trap for better results and performance.


Maximum value achieved for any signal of each quantity: 
V: V(nor10_fanout4.nor13.2:Q) = 1.056 V
I: I(VGND:p) = 116.3 uA
If your circuit contains signals of the same quantity that are vastly different
        in size (such as high voltage circuitry combined with low voltage
        control circuitry), you should consider specifying global option
        `bin_relref=yes'.

~~~~~~~~~~~~~~~~~~~~~~~~~~~~~~~~~
Post-Transient Simulation Summary
~~~~~~~~~~~~~~~~~~~~~~~~~~~~~~~~~
   -   To further speed up simulation, consider
          add ++aps on command line
~~~~~~~~~~~~~~~~~~~~~~~~~~~~~~~~~


During simulation, the CPU load for active processors is :
         0 (36.0 %)      1 (3.8 %)       2 (70.3 %)      3 (6.7 %)
         4 (40.5 %)      5 (20.2 %)      6 (100.0 %)     7 (2.1 %)
         8 (3.9 %)       9 (1.9 %)      10 (1.6 %)      11 (1.2 %)
        Total: 288.1%
Initial condition solution time: CPU = 17.494 ms, elapsed = 18.0712 ms.
Intrinsic tran analysis time:    CPU = 523.419 ms, elapsed = 588.002 ms.
Opening mt file: 
        /CASNFSHOME2/home/sstatthoudakis/Documents/spectre/Gates/NOR2/nor_validate/corners/corner_pin1/gate_load/nor_ff.mt20
Total time required for tran analysis `transient21': CPU = 548.491 ms, elapsed
        = 660.755 ms, util. = 83%.
Time accumulated: CPU = 13.6533 s, elapsed = 21.2555 s.
Peak resident memory used = 151 Mbytes.


**************************
Alter Group `altergroup21'
**************************
Time for altergroup21: CPU = 17.865 ms, elapsed = 18.281 ms.
Time accumulated: CPU = 13.6712 s, elapsed = 21.2757 s.
Peak resident memory used = 151 Mbytes.


******************************************************
Transient Analysis `transient22': time = (0 s -> 2 ns)
******************************************************
DC simulation time: CPU = 17.113 ms, elapsed = 17.1239 ms.

Notice from spectre during transient analysis `transient22'.
    No outputs were found. Loosening output filter criterion to `allpub'.


Opening the PSFXL file ./nor_ff.raw/transient22.tran.tran ...
Important parameter values:
    start = 0 s
    outputstart = 0 s
    stop = 2 ns
    step = 100 fs
    maxstep = 40 ps
    ic = all
    useprevic = no
    skipdc = no
    reltol = 1e-03
    abstol(V) = 1 uV
    abstol(I) = 1 pA
    temp = 0 C
    tnom = 27 C
    tempeffects = all
    errpreset = moderate
    method = traponly
    lteratio = 3.5
    relref = sigglobal
    cmin = 0 F
    gmin = 1 pS


Output and IC/nodeset summary:
                 probe  2       
                 save   3       (current)
                 save   563     (voltage)

......9......8......7......6......5......4......3......2......1......0
Number of accepted tran steps =             228

Maximum value achieved for any signal of each quantity: 
V: V(nor10_fanout4.nor13.2:Q) = 1.075 V
I: I(VGND:p) = 127.5 uA
If your circuit contains signals of the same quantity that are vastly different
        in size (such as high voltage circuitry combined with low voltage
        control circuitry), you should consider specifying global option
        `bin_relref=yes'.

~~~~~~~~~~~~~~~~~~~~~~~~~~~~~~~~~
Post-Transient Simulation Summary
~~~~~~~~~~~~~~~~~~~~~~~~~~~~~~~~~
   -   To further speed up simulation, consider
          add ++aps on command line
~~~~~~~~~~~~~~~~~~~~~~~~~~~~~~~~~


During simulation, the CPU load for active processors is :
         0 (34.7 %)      1 (3.7 %)       2 (71.5 %)      3 (6.5 %)
         4 (38.9 %)      5 (22.5 %)      6 (100.0 %)     7 (2.0 %)
         8 (4.0 %)       9 (1.8 %)      10 (1.6 %)      11 (1.2 %)
        Total: 288.4%
Initial condition solution time: CPU = 17.209 ms, elapsed = 17.8611 ms.
Intrinsic tran analysis time:    CPU = 604.091 ms, elapsed = 674.544 ms.
Opening mt file: 
        /CASNFSHOME2/home/sstatthoudakis/Documents/spectre/Gates/NOR2/nor_validate/corners/corner_pin1/gate_load/nor_ff.mt21
[...]
        control circuitry), you should consider specifying global option
        `bin_relref=yes'.

~~~~~~~~~~~~~~~~~~~~~~~~~~~~~~~~~
Post-Transient Simulation Summary
~~~~~~~~~~~~~~~~~~~~~~~~~~~~~~~~~
   -   To further speed up simulation, consider
          add ++aps on command line
~~~~~~~~~~~~~~~~~~~~~~~~~~~~~~~~~


During simulation, the CPU load for active processors is :
         0 (40.5 %)      1 (10.9 %)      2 (26.1 %)      3 (53.1 %)
         4 (44.4 %)      5 (12.0 %)      6 (100.0 %)     7 (3.9 %)
         8 (4.5 %)       9 (2.2 %)      10 (1.8 %)      11 (1.9 %)
        Total: 301.3%
Initial condition solution time: CPU = 22.569 ms, elapsed = 23.1819 ms.
Intrinsic tran analysis time:    CPU = 677.38 ms, elapsed = 730.719 ms.
Opening mt file: 
        /CASNFSHOME2/home/sstatthoudakis/Documents/spectre/Gates/NOR2/nor_validate/corners/corner_pin1/gate_load/nor_ff.mt140
Total time required for tran analysis `transient141': CPU = 707.398 ms, elapsed
        = 802.213 ms, util. = 88.2%.
Time accumulated: CPU = 100.312 s (1m  40.3s), elapsed = 130.868 s (2m 
        10.9s).
Peak resident memory used = 161 Mbytes.


***************************
Alter Group `altergroup141'
***************************
Time for altergroup141: CPU = 19.384 ms, elapsed = 19.6769 ms.
Time accumulated: CPU = 100.331 s (1m  40.3s), elapsed = 130.889 s (2m 
        10.9s).
Peak resident memory used = 161 Mbytes.


*******************************************************
Transient Analysis `transient142': time = (0 s -> 2 ns)
*******************************************************
DC simulation time: CPU = 19.926 ms, elapsed = 19.9301 ms.

Notice from spectre during transient analysis `transient142'.
    No outputs were found. Loosening output filter criterion to `allpub'.


Opening the PSFXL file ./nor_ff.raw/transient142.tran.tran ...
Important parameter values:
    start = 0 s
    outputstart = 0 s
    stop = 2 ns
    step = 100 fs
    maxstep = 40 ps
    ic = all
    useprevic = no
    skipdc = no
    reltol = 1e-03
    abstol(V) = 1 uV
    abstol(I) = 1 pA
    temp = 0 C
    tnom = 27 C
    tempeffects = all
    errpreset = moderate
    method = traponly
    lteratio = 3.5
    relref = sigglobal
    cmin = 0 F
    gmin = 1 pS


Output and IC/nodeset summary:
                 probe  2       
                 save   3       (current)
                 save   563     (voltage)

......9......8......7......6......5...

Notice from spectre at time = 1.12351 ns during transient analysis
        `transient142'.
    Found trapezoidal ringing on node VGND:p.

......9......8......7......6......5....

Notice from spectre at time = 1.155 ns during transient analysis
        `transient142'.
    Found trapezoidal ringing on node VGND:p.

......9......8......7......6......5......4......3......2......1......0
Number of accepted tran steps =             287

Notice from spectre during transient analysis `transient142'.
    Trapezoidal ringing is detected during tran analysis.
        Please use method=trap for better results and performance.


Maximum value achieved for any signal of each quantity: 
V: V(nor10_fanout4.nor11.2:Q) = 1.486 V
I: I(VVDD:p) = 283.3 uA
If your circuit contains signals of the same quantity that are vastly different
        in size (such as high voltage circuitry combined with low voltage
        control circuitry), you should consider specifying global option
        `bin_relref=yes'.

~~~~~~~~~~~~~~~~~~~~~~~~~~~~~~~~~
Post-Transient Simulation Summary
~~~~~~~~~~~~~~~~~~~~~~~~~~~~~~~~~
   -   To further speed up simulation, consider
          add ++aps on command line
~~~~~~~~~~~~~~~~~~~~~~~~~~~~~~~~~


During simulation, the CPU load for active processors is :
         0 (40.1 %)      1 (10.8 %)      2 (26.0 %)      3 (53.5 %)
         4 (44.6 %)      5 (11.9 %)      6 (100.0 %)     7 (3.9 %)
         8 (4.7 %)       9 (2.2 %)      10 (1.9 %)      11 (1.8 %)
        Total: 301.5%
Initial condition solution time: CPU = 20.029 ms, elapsed = 20.6499 ms.
Intrinsic tran analysis time:    CPU = 793.411 ms, elapsed = 915.979 ms.
Opening mt file: 
        /CASNFSHOME2/home/sstatthoudakis/Documents/spectre/Gates/NOR2/nor_validate/corners/corner_pin1/gate_load/nor_ff.mt141
Total time required for tran analysis `transient142': CPU = 820.902 ms, elapsed
        = 992.123 ms, util. = 82.7%.
Time accumulated: CPU = 101.168 s (1m  41.2s), elapsed = 131.981 s (2m 
        12.0s).
Peak resident memory used = 161 Mbytes.


***************************
Alter Group `altergroup142'
***************************
Time for altergroup142: CPU = 26.565 ms, elapsed = 27.0751 ms.
Time accumulated: CPU = 101.195 s (1m  41.2s), elapsed = 132.009 s (2m 
        12.0s).
Peak resident memory used = 161 Mbytes.


*******************************************************
Transient Analysis `transient143': time = (0 s -> 2 ns)
*******************************************************
DC simulation time: CPU = 21.977 ms, elapsed = 21.9789 ms.

Notice from spectre during transient analysis `transient143'.
    No outputs were found. Loosening output filter criterion to `allpub'.


Opening the PSFXL file ./nor_ff.raw/transient143.tran.tran ...
Important parameter values:
    start = 0 s
    outputstart = 0 s
    stop = 2 ns
    step = 100 fs
    maxstep = 40 ps
    ic = all
    useprevic = no
    skipdc = no
    reltol = 1e-03
    abstol(V) = 1 uV
    abstol(I) = 1 pA
    temp = 50 C
    tnom = 27 C
    tempeffects = all
    errpreset = moderate
    method = traponly
    lteratio = 3.5
    relref = sigglobal
    cmin = 0 F
    gmin = 1 pS


Output and IC/nodeset summary:
                 probe  2       
                 save   3       (current)
                 save   563     (voltage)

......9......8......7......6......5....

Notice from spectre at time = 1.155 ns during transient analysis
        `transient143'.
    Found trapezoidal ringing on node VVDD:p.

......9......8......7......6......5......4......3......2......1......0
Number of accepted tran steps =             276

Notice from spectre during transient analysis `transient143'.
    Trapezoidal ringing is detected during tran analysis.
        Please use method=trap for better results and performance.


Maximum value achieved for any signal of each quantity: 
V: V(nor10_fanout4.nor12.2:Q) = 1.483 V
I: I(VGND:p) = 270.3 uA
If your circuit contains signals of the same quantity that are vastly different
        in size (such as high voltage circuitry combined with low voltage
        control circuitry), you should consider specifying global option
        `bin_relref=yes'.

~~~~~~~~~~~~~~~~~~~~~~~~~~~~~~~~~
Post-Transient Simulation Summary
~~~~~~~~~~~~~~~~~~~~~~~~~~~~~~~~~
   -   To further speed up simulation, consider
          add ++aps on command line
~~~~~~~~~~~~~~~~~~~~~~~~~~~~~~~~~


During simulation, the CPU load for active processors is :
         0 (39.8 %)      1 (10.7 %)      2 (25.8 %)      3 (53.9 %)
         4 (44.9 %)      5 (11.8 %)      6 (100.0 %)     7 (3.9 %)
         8 (4.7 %)       9 (2.2 %)      10 (1.9 %)      11 (1.8 %)
        Total: 301.4%
Initial condition solution time: CPU = 22.085 ms, elapsed = 22.769 ms.
Intrinsic tran analysis time:    CPU = 725.26 ms, elapsed = 800.581 ms.
Opening mt file: 
        /CASNFSHOME2/home/sstatthoudakis/Documents/spectre/Gates/NOR2/nor_validate/corners/corner_pin1/gate_load/nor_ff.mt142
Total time required for tran analysis `transient143': CPU = 757.138 ms, elapsed
        = 874.264 ms, util. = 86.6%.
Time accumulated: CPU = 101.967 s (1m  42.0s), elapsed = 132.972 s (2m 
        13.0s).
Peak resident memory used = 161 Mbytes.


***************************
Alter Group `altergroup143'
***************************
Time for altergroup143: CPU = 23.134 ms, elapsed = 23.6411 ms.
Time accumulated: CPU = 101.99 s (1m  42.0s), elapsed = 132.997 s (2m  13.0s).
Peak resident memory used = 161 Mbytes.


*******************************************************
Transient Analysis `transient144': time = (0 s -> 2 ns)
*******************************************************
DC simulation time: CPU = 24.322 ms, elapsed = 24.3258 ms.

Notice from spectre during transient analysis `transient144'.
    No outputs were found. Loosening output filter criterion to `allpub'.


Opening the PSFXL file ./nor_ff.raw/transient144.tran.tran ...
Important parameter values:
    start = 0 s
    outputstart = 0 s
    stop = 2 ns
    step = 100 fs
    maxstep = 40 ps
    ic = all
    useprevic = no
    skipdc = no
    reltol = 1e-03
    abstol(V) = 1 uV
    abstol(I) = 1 pA
    temp = 125 C
    tnom = 27 C
    tempeffects = all
    errpreset = moderate
    method = traponly
    lteratio = 3.5
    relref = sigglobal
    cmin = 0 F
    gmin = 1 pS


Output and IC/nodeset summary:
                 probe  2       
                 save   3       (current)
                 save   563     (voltage)

......9......8......7......6......5......4......3......2......1......0
Number of accepted tran steps =             260

Maximum value achieved for any signal of each quantity: 
V: V(nor10_fanout4.nor13.2:Q) = 1.477 V
I: I(VGND:p) = 263.6 uA
If your circuit contains signals of the same quantity that are vastly different
        in size (such as high voltage circuitry combined with low voltage
        control circuitry), you should consider specifying global option
        `bin_relref=yes'.

~~~~~~~~~~~~~~~~~~~~~~~~~~~~~~~~~
Post-Transient Simulation Summary
~~~~~~~~~~~~~~~~~~~~~~~~~~~~~~~~~
   -   To further speed up simulation, consider
          add ++aps on command line
~~~~~~~~~~~~~~~~~~~~~~~~~~~~~~~~~


During simulation, the CPU load for active processors is :
         0 (39.6 %)      1 (10.7 %)      2 (25.7 %)      3 (54.2 %)
         4 (45.2 %)      5 (11.7 %)      6 (100.0 %)     7 (3.9 %)
         8 (4.8 %)       9 (2.2 %)      10 (1.9 %)      11 (1.8 %)
        Total: 301.6%
Initial condition solution time: CPU = 24.426 ms, elapsed = 24.8089 ms.
Intrinsic tran analysis time:    CPU = 701.197 ms, elapsed = 763.653 ms.
Opening mt file: 
        /CASNFSHOME2/home/sstatthoudakis/Documents/spectre/Gates/NOR2/nor_validate/corners/corner_pin1/gate_load/nor_ff.mt143
Total time required for tran analysis `transient144': CPU = 733.086 ms, elapsed
        = 840.301 ms, util. = 87.2%.
Time accumulated: CPU = 102.737 s (1m  42.7s), elapsed = 133.93 s (2m  13.9s).
Peak resident memory used = 161 Mbytes.


***************************
Alter Group `altergroup144'
***************************
Time for altergroup144: CPU = 19.115 ms, elapsed = 19.5231 ms.
Time accumulated: CPU = 102.756 s (1m  42.8s), elapsed = 133.951 s (2m 
        14.0s).
Peak resident memory used = 161 Mbytes.


*******************************************************
Transient Analysis `transient145': time = (0 s -> 2 ns)
*******************************************************
DC simulation time: CPU = 20.633 ms, elapsed = 20.6349 ms.

Notice from spectre during transient analysis `transient145'.
    No outputs were found. Loosening output filter criterion to `allpub'.


Opening the PSFXL file ./nor_ff.raw/transient145.tran.tran ...
Important parameter values:
    start = 0 s
    outputstart = 0 s
    stop = 2 ns
    step = 100 fs
    maxstep = 40 ps
    ic = all
    useprevic = no
    skipdc = no
    reltol = 1e-03
    abstol(V) = 1 uV
    abstol(I) = 1 pA
    temp = 0 C
    tnom = 27 C
    tempeffects = all
    errpreset = moderate
    method = traponly
    lteratio = 3.5
    relref = sigglobal
    cmin = 0 F
    gmin = 1 pS


Output and IC/nodeset summary:
                 probe  2       
                 save   3       (current)
                 save   563     (voltage)

......9......8......7......6......5...

Notice from spectre at time = 1.12435 ns during transient analysis
        `transient145'.
    Found trapezoidal ringing on node VVDD:p.

......9......8......7......6......5....

Notice from spectre at time = 1.155 ns during transient analysis
        `transient145'.
    Found trapezoidal ringing on node VVDD:p.

......9......8......7......6......5......4......3......2......1......0
Number of accepted tran steps =             287

Notice from spectre during transient analysis `transient145'.
    Trapezoidal ringing is detected during tran analysis.
        Please use method=trap for better results and performance.


Maximum value achieved for any signal of each quantity: 
V: V(nor10_fanout4.nor13.2:Q) = 1.497 V
I: I(VGND:p) = 287.6 uA
If your circuit contains signals of the same quantity that are vastly different
        in size (such as high voltage circuitry combined with low voltage
        control circuitry), you should consider specifying global option
        `bin_relref=yes'.

~~~~~~~~~~~~~~~~~~~~~~~~~~~~~~~~~
Post-Transient Simulation Summary
~~~~~~~~~~~~~~~~~~~~~~~~~~~~~~~~~
   -   To further speed up simulation, consider
          add ++aps on command line
~~~~~~~~~~~~~~~~~~~~~~~~~~~~~~~~~


During simulation, the CPU load for active processors is :
         0 (39.3 %)      1 (10.6 %)      2 (25.5 %)      3 (54.6 %)
         4 (45.5 %)      5 (11.7 %)      6 (100.0 %)     7 (3.9 %)
         8 (4.9 %)       9 (2.2 %)      10 (1.9 %)      11 (1.8 %)
        Total: 301.7%
Initial condition solution time: CPU = 20.737 ms, elapsed = 21.4021 ms.
Intrinsic tran analysis time:    CPU = 766.636 ms, elapsed = 839.802 ms.
Opening mt file: 
        /CASNFSHOME2/home/sstatthoudakis/Documents/spectre/Gates/NOR2/nor_validate/corners/corner_pin1/gate_load/nor_ff.mt144
Total time required for tran analysis `transient145': CPU = 794.402 ms, elapsed
        = 880.699 ms, util. = 90.2%.
Time accumulated: CPU = 103.566 s (1m  43.6s), elapsed = 134.925 s (2m 
        14.9s).
Peak resident memory used = 161 Mbytes.


***************************
Alter Group `altergroup145'
***************************
Time for altergroup145: CPU = 19.22 ms, elapsed = 19.6099 ms.
Time accumulated: CPU = 103.585 s (1m  43.6s), elapsed = 134.945 s (2m 
        14.9s).
Peak resident memory used = 161 Mbytes.


*******************************************************
Transient Analysis `transient146': time = (0 s -> 2 ns)
*******************************************************
DC simulation time: CPU = 22.343 ms, elapsed = 22.346 ms.

Notice from spectre during transient analysis `transient146'.
    No outputs were found. Loosening output filter criterion to `allpub'.


Opening the PSFXL file ./nor_ff.raw/transient146.tran.tran ...
Important parameter values:
    start = 0 s
    outputstart = 0 s
    stop = 2 ns
    step = 100 fs
    maxstep = 40 ps
    ic = all
    useprevic = no
    skipdc = no
    reltol = 1e-03
    abstol(V) = 1 uV
    abstol(I) = 1 pA
    temp = 50 C
    tnom = 27 C
    tempeffects = all
    errpreset = moderate
    method = traponly
    lteratio = 3.5
    relref = sigglobal
    cmin = 0 F
    gmin = 1 pS


Output and IC/nodeset summary:
                 probe  2       
                 save   3       (current)
                 save   563     (voltage)

......9......8......7......6......5......4......3......2......1......0
Number of accepted tran steps =             279

Maximum value achieved for any signal of each quantity: 
V: V(nor10_fanout4.nor13.2:Q) = 1.493 V
I: I(VGND:p) = 274.3 uA
If your circuit contains signals of the same quantity that are vastly different
        in size (such as high voltage circuitry combined with low voltage
        control circuitry), you should consider specifying global option
        `bin_relref=yes'.

~~~~~~~~~~~~~~~~~~~~~~~~~~~~~~~~~
Post-Transient Simulation Summary
~~~~~~~~~~~~~~~~~~~~~~~~~~~~~~~~~
   -   To further speed up simulation, consider
          add ++aps on command line
~~~~~~~~~~~~~~~~~~~~~~~~~~~~~~~~~


During simulation, the CPU load for active processors is :
         0 (39.0 %)      1 (10.5 %)      2 (25.4 %)      3 (54.9 %)
         4 (45.8 %)      5 (11.7 %)      6 (100.0 %)     7 (3.8 %)
         8 (5.1 %)       9 (2.2 %)      10 (1.9 %)      11 (1.8 %)
        Total: 302.1%
Initial condition solution time: CPU = 22.442 ms, elapsed = 22.964 ms.
Intrinsic tran analysis time:    CPU = 754.785 ms, elapsed = 817.203 ms.
Opening mt file: 
        /CASNFSHOME2/home/sstatthoudakis/Documents/spectre/Gates/NOR2/nor_validate/corners/corner_pin1/gate_load/nor_ff.mt145
Total time required for tran analysis `transient146': CPU = 785.534 ms, elapsed
        = 891.989 ms, util. = 88.1%.
Time accumulated: CPU = 104.386 s (1m  44.4s), elapsed = 135.931 s (2m 
        15.9s).
Peak resident memory used = 161 Mbytes.


***************************
Alter Group `altergroup146'
***************************
Time for altergroup146: CPU = 19.097 ms, elapsed = 19.4108 ms.
Time accumulated: CPU = 104.405 s (1m  44.4s), elapsed = 135.952 s (2m 
        16.0s).
Peak resident memory used = 161 Mbytes.


*******************************************************
Transient Analysis `transient147': time = (0 s -> 2 ns)
*******************************************************
DC simulation time: CPU = 22.591 ms, elapsed = 22.5952 ms.

Notice from spectre during transient analysis `transient147'.
    No outputs were found. Loosening output filter criterion to `allpub'.


Opening the PSFXL file ./nor_ff.raw/transient147.tran.tran ...
Important parameter values:
    start = 0 s
    outputstart = 0 s
    stop = 2 ns
    step = 100 fs
    maxstep = 40 ps
    ic = all
    useprevic = no
    skipdc = no
    reltol = 1e-03
    abstol(V) = 1 uV
    abstol(I) = 1 pA
    temp = 125 C
    tnom = 27 C
    tempeffects = all
    errpreset = moderate
    method = traponly
    lteratio = 3.5
    relref = sigglobal
    cmin = 0 F
    gmin = 1 pS


Output and IC/nodeset summary:
                 probe  2       
                 save   3       (current)
                 save   563     (voltage)

......9......8......7......6......5......4......3......2......1......0
Number of accepted tran steps =             265

Maximum value achieved for any signal of each quantity: 
V: V(nor10_fanout4.nor13.1:Q) = 1.487 V
I: I(VVDD:p) = 268.5 uA
If your circuit contains signals of the same quantity that are vastly different
        in size (such as high voltage circuitry combined with low voltage
        control circuitry), you should consider specifying global option
        `bin_relref=yes'.

~~~~~~~~~~~~~~~~~~~~~~~~~~~~~~~~~
Post-Transient Simulation Summary
~~~~~~~~~~~~~~~~~~~~~~~~~~~~~~~~~
   -   To further speed up simulation, consider
          add ++aps on command line
~~~~~~~~~~~~~~~~~~~~~~~~~~~~~~~~~


During simulation, the CPU load for active processors is :
         0 (38.7 %)      1 (10.5 %)      2 (25.3 %)      3 (55.2 %)
         4 (46.0 %)      5 (11.7 %)      6 (100.0 %)     7 (3.8 %)
         8 (5.1 %)       9 (2.2 %)      10 (1.8 %)      11 (1.8 %)
        Total: 302.0%
Initial condition solution time: CPU = 22.703 ms, elapsed = 23.4089 ms.
Intrinsic tran analysis time:    CPU = 701.767 ms, elapsed = 800.554 ms.
Opening mt file: 
        /CASNFSHOME2/home/sstatthoudakis/Documents/spectre/Gates/NOR2/nor_validate/corners/corner_pin1/gate_load/nor_ff.mt146
Total time required for tran analysis `transient147': CPU = 731.993 ms, elapsed
        = 874.971 ms, util. = 83.7%.
Time accumulated: CPU = 105.151 s (1m  45.2s), elapsed = 136.912 s (2m 
        16.9s).
Peak resident memory used = 162 Mbytes.

Licensing Information:
Lic Summary:
[14:31:40.205153] Cdslmd servers:5280@10.64.82.10
[14:31:40.205219] Feature usage summary:
[14:31:40.205224] Virtuoso_Multi_mode_Simulation


Aggregate audit (2:31:40 PM, Wed Oct 29, 2025):
Time used: CPU = 105 s (1m  45.2s), elapsed = 137 s (2m  17.0s), util. =
        76.7%.
Time spent in licensing: elapsed = 138 ms.
Peak memory used = 162 Mbytes.
Simulation started at: 2:29:23 PM, Wed Oct 29, 2025, ended at: 2:31:40 PM, Wed
        Oct 29, 2025, with elapsed time (wall clock): 137 s (2m  17.0s).
spectre completes with 0 errors, 12 warnings, and 246 notices.
