
Spectre (R) Circuit Simulator
Version 23.1.0.242.isr1 64bit -- 7 Sep 2023
Copyright (C) 1989-2023 Cadence Design Systems, Inc. All rights reserved
        worldwide. Cadence and Spectre are registered trademarks of Cadence
        Design Systems, Inc. All others are the property of their respective
        holders.

Includes RSA BSAFE(R) Cryptographic or Security Protocol Software from RSA
        Security, Inc.

User: sstatthoudakis   Host: torreyridge   HostID: 7F0100   PID: 28995
Memory  available: 104.5435 GB  physical: 135.0278 GB
Linux   : CentOS Linux release 7 (Core)
CPU Type: Intel(R) Xeon(R) Silver 4114 CPU @ 2.20GHz
All processors running at 2194.8 MHz
        Socket: Processors
        0:       0
        2:       1
        4:       2
        6:       3
        8:       4
        10:      5
        12:      6
        14:      7
        16:      8
        18:      9
        20:     10
        22:     11
        
System load averages (1min, 5min, 15min) : 24.8 %, 21.2 %, 20.9 %
This is a virtual machine


Simulating `nor_ss.scs' on torreyridge at 2:31:41 PM, Wed Oct 29, 2025 (process
        id: 28995).
Current working directory:
        /CASNFSHOME2/home/sstatthoudakis/Documents/spectre/Gates/NOR2/nor_validate/corners/corner_pin1/gate_load
Command line:
     \
        /CASNFSHOME/home/edatools/cadence/2023-24/RHELx86/SPECTRE_23.10.242/tools.lnx86/bin/spectre
        \
        -64 nor_ss.scs
Licensing Information:
[14:31:41.231793] Configured Lic search path (22.01-s002): 5280@10.64.82.10

Licensing Information:
[14:31:41.117880] Periodic Lic check successful

Reading file: 
        /CASNFSHOME2/home/sstatthoudakis/Documents/spectre/Gates/NOR2/nor_validate/corners/corner_pin1/gate_load/nor_ss.scs
Reading file: 
        /CASNFSHOME/home/edatools/cadence/2023-24/RHELx86/SPECTRE_23.10.242/tools.lnx86/spectre/etc/configs/spectre.cfg
Reading file: 
        /CASNFSHOME/home/tsaikaterini/IHP/IHP_Generation_files/130ng/ihp013ng_include_all_slow.scs
Reading file: 
        /CASNFSHOME/home/tsaikaterini/IHP/IHP_Generation_files/130ng/SG13S_618_rev1.12.15/tech/SG13_HBT/VBIC/spectre/SG13_cornerBIP.scs
Reading file: 
        /CASNFSHOME/home/tsaikaterini/IHP/IHP_Generation_files/130ng/SG13S_618_rev1.12.15/tech/SG13_HBT/VBIC/spectre/SG13_hbt_mm.scs
Reading file: 
        /CASNFSHOME/home/tsaikaterini/IHP/IHP_Generation_files/130ng/SG13S_618_rev1.12.15/tech/SG13_HBT/VBIC/spectre/SG13_hbt.lib
Reading file: 
        /CASNFSHOME/home/tsaikaterini/IHP/IHP_Generation_files/130ng/SG13S_618_rev1.12.15/tech/SG13_HBT/VBIC/spectre/SG13_hbt_stat.scs
Reading file: 
        /CASNFSHOME/home/tsaikaterini/IHP/IHP_Generation_files/130ng/SG13S_618_rev1.12.15/tech/SG13_MOS/library/spectre/cornerMOSlv_psp.scs
Reading file: 
        /CASNFSHOME/home/tsaikaterini/IHP/IHP_Generation_files/130ng/SG13S_618_rev1.12.15/tech/SG13_MOS/library/spectre/sg13_moslv_psp_stat.scs
Reading file: 
        /CASNFSHOME/home/tsaikaterini/IHP/IHP_Generation_files/130ng/SG13S_618_rev1.12.15/tech/SG13_MOS/library/spectre/sg13_moslv_psp_mod.lib
Reading file: 
        /CASNFSHOME/home/tsaikaterini/IHP/IHP_Generation_files/130ng/SG13S_618_rev1.12.15/tech/SG13_MOS/library/spectre/sg13_moslv_psp_parm.scs
Reading file: 
        /CASNFSHOME/home/tsaikaterini/IHP/IHP_Generation_files/130ng/SG13S_618_rev1.12.15/tech/SG13_MOS/library/spectre/cornerMOShv_psp.scs
Reading file: 
        /CASNFSHOME/home/tsaikaterini/IHP/IHP_Generation_files/130ng/SG13S_618_rev1.12.15/tech/SG13_MOS/library/spectre/sg13_moshv_psp_stat.scs
Reading file: 
        /CASNFSHOME/home/tsaikaterini/IHP/IHP_Generation_files/130ng/SG13S_618_rev1.12.15/tech/SG13_MOS/library/spectre/sg13_moshv_psp_mod.lib
Reading file: 
        /CASNFSHOME/home/tsaikaterini/IHP/IHP_Generation_files/130ng/SG13S_618_rev1.12.15/tech/SG13_MOS/library/spectre/sg13_moshv_psp_parm.scs

Warning from spectre in `nmoselt', during circuit read-in.
    WARNING (SFE-2296):
        "/CASNFSHOME/home/tsaikaterini/IHP/IHP_Generation_files/130ng/SG13S_618_rev1.12.15/tech/SG13_MOS/library/spectre/sg13_moshv_psp_mod.lib"
        79: The inline subckt definition `nmoselt' does not contain any inline
        components. The `inline' qualifier will therefore be ignored.

Reading file: 
        /CASNFSHOME/home/tsaikaterini/IHP/IHP_Generation_files/130ng/SG13S_618_rev1.12.15/tech/SG13_MOS/library/spectre/sg13_svaricaphv_mosvar_mod.lib
Reading file: 
        /CASNFSHOME/home/tsaikaterini/IHP/IHP_Generation_files/130ng/SG13S_618_rev1.12.15/tech/SG13_PASSIVES/spectre/SG13_cornerRES.scs
Reading file: 
        /CASNFSHOME/home/tsaikaterini/IHP/IHP_Generation_files/130ng/SG13S_618_rev1.12.15/tech/SG13_PASSIVES/spectre/SG13_res_mm.scs
Reading file: 
        /CASNFSHOME/home/tsaikaterini/IHP/IHP_Generation_files/130ng/SG13S_618_rev1.12.15/tech/SG13_PASSIVES/spectre/SG13_res_stat.scs
Reading file: 
        /CASNFSHOME/home/tsaikaterini/IHP/IHP_Generation_files/130ng/SG13S_618_rev1.12.15/tech/SG13_PASSIVES/spectre/SG13_res.lib
Reading file: 
        /CASNFSHOME/home/tsaikaterini/IHP/IHP_Generation_files/130ng/SG13S_618_rev1.12.15/tech/SG13_PASSIVES/spectre/SG13_cornerCAP.scs
Reading file: 
        /CASNFSHOME/home/tsaikaterini/IHP/IHP_Generation_files/130ng/SG13S_618_rev1.12.15/tech/SG13_PASSIVES/spectre/SG13_cap_mm.scs
Reading file: 
        /CASNFSHOME/home/tsaikaterini/IHP/IHP_Generation_files/130ng/SG13S_618_rev1.12.15/tech/SG13_PASSIVES/spectre/SG13_cap_stat.scs
Reading file: 
        /CASNFSHOME/home/tsaikaterini/IHP/IHP_Generation_files/130ng/SG13S_618_rev1.12.15/tech/SG13_PASSIVES/spectre/SG13_cap.lib
Reading file: 
        /CASNFSHOME/home/tsaikaterini/IHP/IHP_Generation_files/130ng/SG13S_618_rev1.12.15/tech/SG13_PASSIVES/spectre/Ind_unit_4PI
Reading file: 
        /CASNFSHOME/home/tsaikaterini/IHP/IHP_Generation_files/130ng/SG13S_618_rev1.12.15/tech/SG13_PASSIVES/spectre/Parameters_define_4PI
Reading file: 
        /CASNFSHOME/home/tsaikaterini/IHP/IHP_Generation_files/130ng/SG13S_618_rev1.12.15/tech/SG13_PASSIVES/spectre/sg13s_dschottky_nbl1_mod.lib
Reading file: 
        /CASNFSHOME/home/tsaikaterini/IHP/IHP_Generation_files/130ng/SG13S_618_rev1.12.15/tech/SG13_PASSIVES/spectre/SG13_diodes.lib
Reading file: 
        /CASNFSHOME/home/tsaikaterini/IHP/IHP_Generation_files/130ng/SG13S_618_rev1.12.15/tech/SG13_MOS/library/spectre/CheckMOSstat.scs
Reading file: 
        /CASNFSHOME/home/tsaikaterini/IHP/IHP_Generation_files/130ng/SG13S_618_rev1.12.15/tech/SG13_MOS/library/spectre/CheckMOSdyn.scs
Reading file: 
        /CASNFSHOME/home/tsaikaterini/IHP/IHP_Generation_files/130ng/SG13S_618_rev1.12.15/tech/SG13_ESD/spectre/SG13_esd.lib
Reading file: 
        /CASNFSHOME/home/tsaikaterini/IHP/IHP_Generation_files/130ng/SG13S_618_rev1.12.15/tech/SG13_PASSIVES/spectre/SG13_cornerTSV.scs
Reading file: 
        /CASNFSHOME/home/tsaikaterini/IHP/IHP_Generation_files/130ng/SG13S_618_rev1.12.15/tech/SG13_PASSIVES/spectre/SG13_paramsTSV.scs
Reading file: 
        /CASNFSHOME/home/tsaikaterini/IHP/IHP_Generation_files/130ng/SG13S_618_rev1.12.15/tech/SG13_PASSIVES/spectre/SG13_tsv.lib
Reading file: 
        /CASNFSHOME/home/tsaikaterini/IHP/IHP_Generation_files/130ng/ixc013ng_stdcell_rc.scs
Time for NDB Parsing: CPU = 568.823 ms, elapsed = 1.24753 s.
Time accumulated: CPU = 689.967 ms, elapsed = 1.24754 s.
Peak resident memory used = 116 Mbytes.


Warning from spectre in `NO2JIX0':`nor1', during hierarchy flattening.
    WARNING (SFE-103):
        "/CASNFSHOME/home/tsaikaterini/IHP/IHP_Generation_files/130ng/ixc013ng_stdcell_rc.scs"
        28325: Subcircuit parameter `nrd', defined for subcircuit
        `sg13_lv_pmos', has been ignored because it is invalid. Check the
        parameters that are defined for the instantiated subcircuit and rerun
        the simulation.
    WARNING (SFE-103):
        "/CASNFSHOME/home/tsaikaterini/IHP/IHP_Generation_files/130ng/ixc013ng_stdcell_rc.scs"
        28325: Subcircuit parameter `nrs', defined for subcircuit
        `sg13_lv_pmos', has been ignored because it is invalid. Check the
        parameters that are defined for the instantiated subcircuit and rerun
        the simulation.
    WARNING (SFE-103):
        "/CASNFSHOME/home/tsaikaterini/IHP/IHP_Generation_files/130ng/ixc013ng_stdcell_rc.scs"
        28328: Subcircuit parameter `nrd', defined for subcircuit
        `sg13_lv_pmos', has been ignored because it is invalid. Check the
        parameters that are defined for the instantiated subcircuit and rerun
        the simulation.
    WARNING (SFE-103):
        "/CASNFSHOME/home/tsaikaterini/IHP/IHP_Generation_files/130ng/ixc013ng_stdcell_rc.scs"
        28328: Subcircuit parameter `nrs', defined for subcircuit
        `sg13_lv_pmos', has been ignored because it is invalid. Check the
        parameters that are defined for the instantiated subcircuit and rerun
        the simulation.
    WARNING (SFE-103):
        "/CASNFSHOME/home/tsaikaterini/IHP/IHP_Generation_files/130ng/ixc013ng_stdcell_rc.scs"
        28330: Subcircuit parameter `nrd', defined for subcircuit
        `sg13_lv_nmos', has been ignored because it is invalid. Check the
        parameters that are defined for the instantiated subcircuit and rerun
        the simulation.
        Further occurrences of this warning will be suppressed.

Time for Elaboration: CPU = 43.813 ms, elapsed = 171.025 ms.
Time accumulated: CPU = 734.007 ms, elapsed = 1.42036 s.
Peak resident memory used = 125 Mbytes.


Notice from spectre in `NO2JIX0':`nor1', during hierarchy flattening.
    nor1.c6: Terminals are connected together (to node `VSS').
Notice from spectre in `NO2JIX0':`nor2', during hierarchy flattening.
    nor2.c6: Terminals are connected together (to node `VSS').
Notice from spectre in `NO2JIX0':`nor3', during hierarchy flattening.
    nor3.c6: Terminals are connected together (to node `VSS').
Notice from spectre in `NO2JIX0':`nor4', during hierarchy flattening.
    nor4.c6: Terminals are connected together (to node `VSS').
Notice from spectre in `NO2JIX0':`nor5', during hierarchy flattening.
    nor5.c6: Terminals are connected together (to node `VSS').
        Further occurrences of this notice will be suppressed (except in log
        file).

Time for EDB Visiting: CPU = 45.279 ms, elapsed = 51.4321 ms.
Time accumulated: CPU = 779.728 ms, elapsed = 1.47416 s.
Peak resident memory used = 134 Mbytes.


Warning from spectre during initial setup.
    WARNING (SPECTRE-17237): Assert violations will be written to the sqldb
        file because the 'checklimitdest' option has not been specified.
    WARNING (SPECTRE-17607): Assert `check_sg13s_lv_nmosHV_vgs' is ignored
        because it contains an expression which is not supported by native
        evaluator. 
    WARNING (SPECTRE-17607): Assert `check_sg13s_lv_nmosHV_vgd' is ignored
        because it contains an expression which is not supported by native
        evaluator. 
    WARNING (SPECTRE-17607): Assert `check_sg13s_lv_nmosHV_vds' is ignored
        because it contains an expression which is not supported by native
        evaluator. 
    WARNING (SPECTRE-17607): Assert `check_sg13s_lv_nmosHV_vdb' is ignored
        because it contains an expression which is not supported by native
        evaluator. 
    WARNING (SPECTRE-17607): Assert `check_sg13s_lv_nmosHV_vgb' is ignored
        because it contains an expression which is not supported by native
        evaluator. 
        Further occurrences of this warning will be suppressed.


Global user options:
               temp = 0

Scoped user options:

Circuit inventory:
              nodes 563
          capacitor 680   
          pspnqs103 160   
           resistor 480   
            vsource 3     

Analysis and control statement inventory:
         altergroup 146   
               tran 147   

Output statements:
             .probe 0     
           .measure 3     
               save 0     

Design checks inventory:
          paramtest 640   
             assert 40    


Notice from spectre.
    35 notices suppressed.
    322 warnings suppressed.

Time for parsing: CPU = 44.874 ms, elapsed = 1.33713 s.
Time accumulated: CPU = 824.864 ms, elapsed = 2.8139 s.
Peak resident memory used = 138 Mbytes.

~~~~~~~~~~~~~~~~~~~~~~
Pre-Simulation Summary
~~~~~~~~~~~~~~~~~~~~~~
~~~~~~~~~~~~~~~~~~~~~~

Notice from spectre during transient analysis `transient1'.
    No checklimit analysis defined for asserts. A default checklimit analysis
        'SpectreChecklimitAnal' has been created with all asserts enabled.


*****************************************************
Transient Analysis `transient1': time = (0 s -> 2 ns)
*****************************************************
DC simulation time: CPU = 20.343 ms, elapsed = 20.3559 ms.

Notice from spectre during transient analysis `transient1'.
    No outputs were found. Loosening output filter criterion to `allpub'.


Opening the PSFXL file ./nor_ss.raw/transient1.tran.tran ...
Important parameter values:
    start = 0 s
    outputstart = 0 s
    stop = 2 ns
    step = 100 fs
    maxstep = 40 ps
    ic = all
    useprevic = no
    skipdc = no
    reltol = 1e-03
    abstol(V) = 1 uV
    abstol(I) = 1 pA
    temp = 0 C
    tnom = 27 C
    tempeffects = all
    errpreset = moderate
    method = traponly
    lteratio = 3.5
    relref = sigglobal
    cmin = 0 F
    gmin = 1 pS


Output and IC/nodeset summary:
                 probe  2       
                 save   3       (current)
                 save   563     (voltage)

......9......8......7......6......5......4......3......2......1......0
Number of accepted tran steps =             130

Maximum value achieved for any signal of each quantity: 
V: V(nor1_fanout4.nor13.1:Q) = 1.027 V
I: I(VVDD:p) = 84.94 uA
If your circuit contains signals of the same quantity that are vastly different
        in size (such as high voltage circuitry combined with low voltage
        control circuitry), you should consider specifying global option
        `bin_relref=yes'.

~~~~~~~~~~~~~~~~~~~~~~~~~~~~~~~~~
Post-Transient Simulation Summary
~~~~~~~~~~~~~~~~~~~~~~~~~~~~~~~~~
   -   To further speed up simulation, consider
          add ++aps on command line
~~~~~~~~~~~~~~~~~~~~~~~~~~~~~~~~~


During simulation, the CPU load for active processors is :
         0 (2.5 %)       1 (19.4 %)      2 (6.5 %)       3 (100.0 %)
         4 (2.5 %)       5 (7.7 %)       6 (100.0 %)     7 (14.5 %)
         8 (9.6 %)       9 (1.9 %)      11 (2.2 %)      
        Total: 267.7%
Initial condition solution time: CPU = 20.499 ms, elapsed = 21.152 ms.
Intrinsic tran analysis time:    CPU = 344.317 ms, elapsed = 403.024 ms.
Opening measure  file: 
        /CASNFSHOME2/home/sstatthoudakis/Documents/spectre/Gates/NOR2/nor_validate/corners/corner_pin1/gate_load/nor_ss.measure
Opening mt file: 
        /CASNFSHOME2/home/sstatthoudakis/Documents/spectre/Gates/NOR2/nor_validate/corners/corner_pin1/gate_load/nor_ss.mt0
Total time required for tran analysis `transient1': CPU = 453.401 ms, elapsed =
        709.44 ms, util. = 63.9%.
Time accumulated: CPU = 1.3142 s, elapsed = 3.61392 s.
Peak resident memory used = 151 Mbytes.


*************************
Alter Group `altergroup1'
*************************
Time for altergroup1: CPU = 31.949 ms, elapsed = 32.3582 ms.
Time accumulated: CPU = 1.34657 s, elapsed = 3.64763 s.
Peak resident memory used = 151 Mbytes.


*****************************************************
Transient Analysis `transient2': time = (0 s -> 2 ns)
*****************************************************
DC simulation time: CPU = 17.099 ms, elapsed = 17.102 ms.

Notice from spectre during transient analysis `transient2'.
    No outputs were found. Loosening output filter criterion to `allpub'.


Opening the PSFXL file ./nor_ss.raw/transient2.tran.tran ...
Important parameter values:
    start = 0 s
    outputstart = 0 s
    stop = 2 ns
    step = 100 fs
    maxstep = 40 ps
    ic = all
    useprevic = no
    skipdc = no
    reltol = 1e-03
    abstol(V) = 1 uV
    abstol(I) = 1 pA
    temp = 50 C
    tnom = 27 C
    tempeffects = all
    errpreset = moderate
    method = traponly
    lteratio = 3.5
    relref = sigglobal
    cmin = 0 F
    gmin = 1 pS


Output and IC/nodeset summary:
                 probe  2       
                 save   3       (current)
                 save   563     (voltage)

......9......8......7......6......5......4......3......2......1......0
Number of accepted tran steps =             130

Maximum value achieved for any signal of each quantity: 
V: V(nor1_fanout4.nor13.1:Q) = 1.011 V
I: I(VVDD:p) = 94.61 uA
If your circuit contains signals of the same quantity that are vastly different
        in size (such as high voltage circuitry combined with low voltage
        control circuitry), you should consider specifying global option
        `bin_relref=yes'.

~~~~~~~~~~~~~~~~~~~~~~~~~~~~~~~~~
Post-Transient Simulation Summary
~~~~~~~~~~~~~~~~~~~~~~~~~~~~~~~~~
   -   To further speed up simulation, consider
          add ++aps on command line
~~~~~~~~~~~~~~~~~~~~~~~~~~~~~~~~~


During simulation, the CPU load for active processors is :
         0 (2.2 %)       1 (15.6 %)      2 (5.2 %)       3 (100.0 %)
         4 (2.7 %)       5 (6.7 %)       6 (100.0 %)     7 (23.8 %)
         8 (8.7 %)       9 (2.5 %)      10 (1.2 %)      11 (2.2 %)
        Total: 270.8%
Initial condition solution time: CPU = 17.205 ms, elapsed = 17.7798 ms.
Intrinsic tran analysis time:    CPU = 331.677 ms, elapsed = 389.019 ms.
Opening mt file: 
        /CASNFSHOME2/home/sstatthoudakis/Documents/spectre/Gates/NOR2/nor_validate/corners/corner_pin1/gate_load/nor_ss.mt1
Total time required for tran analysis `transient2': CPU = 358.833 ms, elapsed =
        456.949 ms, util. = 78.5%.
Time accumulated: CPU = 1.73391 s, elapsed = 4.18539 s.
Peak resident memory used = 151 Mbytes.


*************************
Alter Group `altergroup2'
*************************
Time for altergroup2: CPU = 24.376 ms, elapsed = 24.7781 ms.
Time accumulated: CPU = 1.75854 s, elapsed = 4.21158 s.
Peak resident memory used = 151 Mbytes.


*****************************************************
Transient Analysis `transient3': time = (0 s -> 2 ns)
*****************************************************

Notice from spectre during IC analysis `timeSweep_cloned_2', during transient
        analysis `transient3'.
    Bad pivoting is found during DC analysis. Option dc_pivot_check=yes is
        recommended for possible improvement of convergence.

DC simulation time: CPU = 16.682 ms, elapsed = 17.566 ms.

Notice from spectre during transient analysis `transient3'.
    No outputs were found. Loosening output filter criterion to `allpub'.


Opening the PSFXL file ./nor_ss.raw/transient3.tran.tran ...
Important parameter values:
    start = 0 s
    outputstart = 0 s
    stop = 2 ns
    step = 100 fs
    maxstep = 40 ps
    ic = all
    useprevic = no
    skipdc = no
    reltol = 1e-03
    abstol(V) = 1 uV
    abstol(I) = 1 pA
    temp = 125 C
    tnom = 27 C
    tempeffects = all
    errpreset = moderate
    method = traponly
    lteratio = 3.5
    relref = sigglobal
    cmin = 0 F
    gmin = 1 pS


Output and IC/nodeset summary:
                 probe  2       
                 save   3       (current)
                 save   563     (voltage)

......9......8......7......6......5......4......3......2......1......0
Number of accepted tran steps =             129

Maximum value achieved for any signal of each quantity: 
V: V(nor1_fanout4.nor12.2:Q) = 999.5 mV
I: I(VVDD:p) = 97.51 uA
If your circuit contains signals of the same quantity that are vastly different
        in size (such as high voltage circuitry combined with low voltage
        control circuitry), you should consider specifying global option
        `bin_relref=yes'.

~~~~~~~~~~~~~~~~~~~~~~~~~~~~~~~~~
Post-Transient Simulation Summary
~~~~~~~~~~~~~~~~~~~~~~~~~~~~~~~~~
   -   To further speed up simulation, consider
          add ++aps on command line
~~~~~~~~~~~~~~~~~~~~~~~~~~~~~~~~~


During simulation, the CPU load for active processors is :
         0 (3.2 %)       1 (13.7 %)      2 (4.6 %)       3 (100.0 %)
         4 (2.4 %)       5 (7.2 %)       6 (100.0 %)     7 (29.4 %)
         8 (8.0 %)       9 (2.4 %)      10 (1.3 %)      11 (2.0 %)
        Total: 274.2%
Initial condition solution time: CPU = 16.748 ms, elapsed = 17.9629 ms.
Intrinsic tran analysis time:    CPU = 321.766 ms, elapsed = 393.856 ms.
Opening mt file: 
        /CASNFSHOME2/home/sstatthoudakis/Documents/spectre/Gates/NOR2/nor_validate/corners/corner_pin1/gate_load/nor_ss.mt2
Total time required for tran analysis `transient3': CPU = 345.123 ms, elapsed =
        430.802 ms, util. = 80.1%.
Time accumulated: CPU = 2.12693 s, elapsed = 4.71715 s.
Peak resident memory used = 151 Mbytes.


*************************
Alter Group `altergroup3'
*************************
Time for altergroup3: CPU = 23.275 ms, elapsed = 24.014 ms.
Time accumulated: CPU = 2.15053 s, elapsed = 4.74306 s.
Peak resident memory used = 151 Mbytes.


*****************************************************
Transient Analysis `transient4': time = (0 s -> 2 ns)
*****************************************************
DC simulation time: CPU = 16.521 ms, elapsed = 16.5229 ms.

Notice from spectre during transient analysis `transient4'.
    No outputs were found. Loosening output filter criterion to `allpub'.


Opening the PSFXL file ./nor_ss.raw/transient4.tran.tran ...
Important parameter values:
    start = 0 s
    outputstart = 0 s
    stop = 2 ns
    step = 100 fs
    maxstep = 40 ps
    ic = all
    useprevic = no
    skipdc = no
    reltol = 1e-03
    abstol(V) = 1 uV
    abstol(I) = 1 pA
    temp = 0 C
    tnom = 27 C
    tempeffects = all
    errpreset = moderate
    method = traponly
    lteratio = 3.5
    relref = sigglobal
    cmin = 0 F
    gmin = 1 pS


Output and IC/nodeset summary:
                 probe  2       
                 save   3       (current)
                 save   563     (voltage)

......9......8......7......6......5......4......3......2......1......0
Number of accepted tran steps =             132

Maximum value achieved for any signal of each quantity: 
V: V(nor1_fanout4.nor13.1:Q) = 1.034 V
I: I(VVDD:p) = 97.71 uA
If your circuit contains signals of the same quantity that are vastly different
        in size (such as high voltage circuitry combined with low voltage
        control circuitry), you should consider specifying global option
        `bin_relref=yes'.

~~~~~~~~~~~~~~~~~~~~~~~~~~~~~~~~~
Post-Transient Simulation Summary
~~~~~~~~~~~~~~~~~~~~~~~~~~~~~~~~~
   -   To further speed up simulation, consider
          add ++aps on command line
~~~~~~~~~~~~~~~~~~~~~~~~~~~~~~~~~


During simulation, the CPU load for active processors is :
         0 (2.9 %)       1 (12.3 %)      2 (4.5 %)       3 (100.0 %)
         4 (2.1 %)       5 (6.7 %)       6 (100.0 %)     7 (34.3 %)
         8 (7.4 %)       9 (2.5 %)      10 (1.4 %)      11 (1.8 %)
        Total: 275.8%
Initial condition solution time: CPU = 16.603 ms, elapsed = 17.112 ms.
Intrinsic tran analysis time:    CPU = 333.291 ms, elapsed = 397.487 ms.
Opening mt file: 
        /CASNFSHOME2/home/sstatthoudakis/Documents/spectre/Gates/NOR2/nor_validate/corners/corner_pin1/gate_load/nor_ss.mt3
Total time required for tran analysis `transient4': CPU = 357.01 ms, elapsed =
        466.557 ms, util. = 76.5%.
Time accumulated: CPU = 2.51959 s, elapsed = 5.27826 s.
Peak resident memory used = 151 Mbytes.


*************************
Alter Group `altergroup4'
*************************
Time for altergroup4: CPU = 17.754 ms, elapsed = 18.0371 ms.
Time accumulated: CPU = 2.53747 s, elapsed = 5.29733 s.
Peak resident memory used = 151 Mbytes.


*****************************************************
Transient Analysis `transient5': time = (0 s -> 2 ns)
*****************************************************

Notice from spectre during IC analysis `timeSweep_cloned_4', during transient
        analysis `transient5'.
    Bad pivoting is found during DC analysis. Option dc_pivot_check=yes is
        recommended for possible improvement of convergence.

DC simulation time: CPU = 16.797 ms, elapsed = 17.8649 ms.

Notice from spectre during transient analysis `transient5'.
    No outputs were found. Loosening output filter criterion to `allpub'.


Opening the PSFXL file ./nor_ss.raw/transient5.tran.tran ...
Important parameter values:
    start = 0 s
    outputstart = 0 s
    stop = 2 ns
    step = 100 fs
    maxstep = 40 ps
    ic = all
    useprevic = no
    skipdc = no
    reltol = 1e-03
    abstol(V) = 1 uV
    abstol(I) = 1 pA
    temp = 50 C
    tnom = 27 C
    tempeffects = all
    errpreset = moderate
    method = traponly
    lteratio = 3.5
    relref = sigglobal
    cmin = 0 F
    gmin = 1 pS


Output and IC/nodeset summary:
                 probe  2       
                 save   3       (current)
                 save   563     (voltage)

......9......8......7......6......5......4......3......2......1......0
Number of accepted tran steps =             130

Maximum value achieved for any signal of each quantity: 
V: V(nor1_fanout4.nor13.1:Q) = 1.02 V
I: I(VVDD:p) = 101.8 uA
If your circuit contains signals of the same quantity that are vastly different
        in size (such as high voltage circuitry combined with low voltage
        control circuitry), you should consider specifying global option
        `bin_relref=yes'.

~~~~~~~~~~~~~~~~~~~~~~~~~~~~~~~~~
Post-Transient Simulation Summary
~~~~~~~~~~~~~~~~~~~~~~~~~~~~~~~~~
   -   To further speed up simulation, consider
          add ++aps on command line
~~~~~~~~~~~~~~~~~~~~~~~~~~~~~~~~~


During simulation, the CPU load for active processors is :
         0 (3.5 %)       1 (12.0 %)      2 (4.0 %)       3 (100.0 %)
         4 (1.9 %)       5 (6.8 %)       6 (100.0 %)     7 (37.9 %)
         8 (7.2 %)       9 (2.5 %)      10 (1.2 %)      11 (1.8 %)
        Total: 278.8%
Initial condition solution time: CPU = 16.858 ms, elapsed = 18.2669 ms.
Intrinsic tran analysis time:    CPU = 326.961 ms, elapsed = 380.318 ms.
Opening mt file: 
        /CASNFSHOME2/home/sstatthoudakis/Documents/spectre/Gates/NOR2/nor_validate/corners/corner_pin1/gate_load/nor_ss.mt4
Total time required for tran analysis `transient5': CPU = 352.147 ms, elapsed =
        466.135 ms, util. = 75.5%.
Time accumulated: CPU = 2.91173 s, elapsed = 5.8393 s.
Peak resident memory used = 151 Mbytes.


*************************
Alter Group `altergroup5'
*************************
Time for altergroup5: CPU = 24.772 ms, elapsed = 25.1338 ms.
Time accumulated: CPU = 2.93686 s, elapsed = 5.86575 s.
Peak resident memory used = 151 Mbytes.


*****************************************************
Transient Analysis `transient6': time = (0 s -> 2 ns)
*****************************************************
DC simulation time: CPU = 20.812 ms, elapsed = 20.8299 ms.

Notice from spectre during transient analysis `transient6'.
    No outputs were found. Loosening output filter criterion to `allpub'.


Opening the PSFXL file ./nor_ss.raw/transient6.tran.tran ...
Important parameter values:
    start = 0 s
    outputstart = 0 s
    stop = 2 ns
    step = 100 fs
    maxstep = 40 ps
    ic = all
    useprevic = no
    skipdc = no
    reltol = 1e-03
    abstol(V) = 1 uV
    abstol(I) = 1 pA
    temp = 125 C
    tnom = 27 C
    tempeffects = all
    errpreset = moderate
    method = traponly
    lteratio = 3.5
    relref = sigglobal
    cmin = 0 F
    gmin = 1 pS


Output and IC/nodeset summary:
                 probe  2       
                 save   3       (current)
                 save   563     (voltage)

......9......8......7......6......5......4......3......2......1......0
Number of accepted tran steps =             140

Maximum value achieved for any signal of each quantity: 
V: V(nor1_fanout4.nor12.2:Q) = 1.01 V
I: I(VVDD:p) = 92.77 uA
If your circuit contains signals of the same quantity that are vastly different
        in size (such as high voltage circuitry combined with low voltage
        control circuitry), you should consider specifying global option
        `bin_relref=yes'.

~~~~~~~~~~~~~~~~~~~~~~~~~~~~~~~~~
Post-Transient Simulation Summary
~~~~~~~~~~~~~~~~~~~~~~~~~~~~~~~~~
   -   To further speed up simulation, consider
          add ++aps on command line
~~~~~~~~~~~~~~~~~~~~~~~~~~~~~~~~~


During simulation, the CPU load for active processors is :
         0 (11.0 %)      1 (10.7 %)      2 (3.6 %)       3 (100.0 %)
         4 (2.0 %)       5 (6.2 %)       6 (100.0 %)     7 (34.1 %)
         8 (7.1 %)       9 (2.4 %)      10 (1.1 %)      11 (1.7 %)
        Total: 280.0%
Initial condition solution time: CPU = 20.924 ms, elapsed = 21.698 ms.
Intrinsic tran analysis time:    CPU = 428.48 ms, elapsed = 487.974 ms.
Opening mt file: 
        /CASNFSHOME2/home/sstatthoudakis/Documents/spectre/Gates/NOR2/nor_validate/corners/corner_pin1/gate_load/nor_ss.mt5
Total time required for tran analysis `transient6': CPU = 461.958 ms, elapsed =
        566.6 ms, util. = 81.5%.
Time accumulated: CPU = 3.42494 s, elapsed = 6.51246 s.
Peak resident memory used = 151 Mbytes.


*************************
Alter Group `altergroup6'
*************************
Time for altergroup6: CPU = 33.49 ms, elapsed = 33.828 ms.
Time accumulated: CPU = 3.45879 s, elapsed = 6.54775 s.
Peak resident memory used = 151 Mbytes.


*****************************************************
Transient Analysis `transient7': time = (0 s -> 2 ns)
*****************************************************
DC simulation time: CPU = 17.428 ms, elapsed = 17.4389 ms.

Notice from spectre during transient analysis `transient7'.
    No outputs were found. Loosening output filter criterion to `allpub'.


Opening the PSFXL file ./nor_ss.raw/transient7.tran.tran ...
Important parameter values:
    start = 0 s
    outputstart = 0 s
    stop = 2 ns
    step = 100 fs
    maxstep = 40 ps
    ic = all
    useprevic = no
    skipdc = no
    reltol = 1e-03
    abstol(V) = 1 uV
    abstol(I) = 1 pA
    temp = 0 C
    tnom = 27 C
    tempeffects = all
    errpreset = moderate
    method = traponly
    lteratio = 3.5
    relref = sigglobal
    cmin = 0 F
    gmin = 1 pS


Output and IC/nodeset summary:
                 probe  2       
                 save   3       (current)
                 save   563     (voltage)

......9......8......7......6......5......4......3......2......1......0
Number of accepted tran steps =             138

Maximum value achieved for any signal of each quantity: 
V: V(nor1_fanout4.nor12.1:Q) = 1.043 V
I: I(VVDD:p) = 106.1 uA
If your circuit contains signals of the same quantity that are vastly different
        in size (such as high voltage circuitry combined with low voltage
        control circuitry), you should consider specifying global option
        `bin_relref=yes'.

~~~~~~~~~~~~~~~~~~~~~~~~~~~~~~~~~
Post-Transient Simulation Summary
~~~~~~~~~~~~~~~~~~~~~~~~~~~~~~~~~
   -   To further speed up simulation, consider
          add ++aps on command line
~~~~~~~~~~~~~~~~~~~~~~~~~~~~~~~~~


During simulation, the CPU load for active processors is :
         0 (11.6 %)      1 (9.8 %)       2 (3.3 %)       3 (100.0 %)
         4 (1.9 %)       5 (5.8 %)       6 (100.0 %)     7 (31.3 %)
         8 (11.2 %)      9 (2.6 %)      10 (1.0 %)      11 (1.7 %)
        Total: 280.2%
Initial condition solution time: CPU = 17.549 ms, elapsed = 18.2929 ms.
Intrinsic tran analysis time:    CPU = 355.773 ms, elapsed = 416.577 ms.
Opening mt file: 
        /CASNFSHOME2/home/sstatthoudakis/Documents/spectre/Gates/NOR2/nor_validate/corners/corner_pin1/gate_load/nor_ss.mt6
Total time required for tran analysis `transient7': CPU = 383.856 ms, elapsed =
        492.647 ms, util. = 77.9%.
Time accumulated: CPU = 3.86945 s, elapsed = 7.12466 s.
Peak resident memory used = 151 Mbytes.


*************************
Alter Group `altergroup7'
*************************
Time for altergroup7: CPU = 23.844 ms, elapsed = 24.271 ms.
Time accumulated: CPU = 3.8936 s, elapsed = 7.15046 s.
Peak resident memory used = 151 Mbytes.


*****************************************************
Transient Analysis `transient8': time = (0 s -> 2 ns)
*****************************************************
DC simulation time: CPU = 17.332 ms, elapsed = 17.334 ms.

Notice from spectre during transient analysis `transient8'.
    No outputs were found. Loosening output filter criterion to `allpub'.


Opening the PSFXL file ./nor_ss.raw/transient8.tran.tran ...
Important parameter values:
    start = 0 s
    outputstart = 0 s
    stop = 2 ns
    step = 100 fs
    maxstep = 40 ps
    ic = all
    useprevic = no
    skipdc = no
    reltol = 1e-03
    abstol(V) = 1 uV
    abstol(I) = 1 pA
    temp = 50 C
    tnom = 27 C
    tempeffects = all
    errpreset = moderate
    method = traponly
    lteratio = 3.5
    relref = sigglobal
    cmin = 0 F
    gmin = 1 pS


Output and IC/nodeset summary:
                 probe  2       
                 save   3       (current)
                 save   563     (voltage)

......9......8......7......6......5......4......3......2......1......0
Number of accepted tran steps =             133

Maximum value achieved for any signal of each quantity: 
V: V(nor1_fanout4.nor13.2:Q) = 1.028 V
I: I(VVDD:p) = 103.7 uA
If your circuit contains signals of the same quantity that are vastly different
        in size (such as high voltage circuitry combined with low voltage
        control circuitry), you should consider specifying global option
        `bin_relref=yes'.

~~~~~~~~~~~~~~~~~~~~~~~~~~~~~~~~~
Post-Transient Simulation Summary
~~~~~~~~~~~~~~~~~~~~~~~~~~~~~~~~~
   -   To further speed up simulation, consider
          add ++aps on command line
~~~~~~~~~~~~~~~~~~~~~~~~~~~~~~~~~


During simulation, the CPU load for active processors is :
         0 (13.5 %)      1 (9.1 %)       2 (3.2 %)       3 (100.0 %)
         4 (2.2 %)       5 (5.9 %)       6 (97.2 %)      7 (29.4 %)
         8 (16.2 %)      9 (2.8 %)      10 (1.1 %)      11 (1.7 %)
        Total: 282.3%
Initial condition solution time: CPU = 17.432 ms, elapsed = 18.142 ms.
Intrinsic tran analysis time:    CPU = 360.618 ms, elapsed = 421.627 ms.
Opening mt file: 
        /CASNFSHOME2/home/sstatthoudakis/Documents/spectre/Gates/NOR2/nor_validate/corners/corner_pin1/gate_load/nor_ss.mt7
Total time required for tran analysis `transient8': CPU = 385.539 ms, elapsed =
        494.679 ms, util. = 77.9%.
Time accumulated: CPU = 4.29134 s, elapsed = 7.72538 s.
Peak resident memory used = 151 Mbytes.


*************************
Alter Group `altergroup8'
*************************
Time for altergroup8: CPU = 18.59 ms, elapsed = 18.9629 ms.
Time accumulated: CPU = 4.31005 s, elapsed = 7.74569 s.
Peak resident memory used = 151 Mbytes.


*****************************************************
Transient Analysis `transient9': time = (0 s -> 2 ns)
*****************************************************
DC simulation time: CPU = 16.626 ms, elapsed = 16.628 ms.

Notice from spectre during transient analysis `transient9'.
    No outputs were found. Loosening output filter criterion to `allpub'.


Opening the PSFXL file ./nor_ss.raw/transient9.tran.tran ...
Important parameter values:
    start = 0 s
    outputstart = 0 s
    stop = 2 ns
    step = 100 fs
    maxstep = 40 ps
    ic = all
    useprevic = no
    skipdc = no
    reltol = 1e-03
    abstol(V) = 1 uV
    abstol(I) = 1 pA
    temp = 125 C
    tnom = 27 C
    tempeffects = all
    errpreset = moderate
    method = traponly
    lteratio = 3.5
    relref = sigglobal
    cmin = 0 F
    gmin = 1 pS


Output and IC/nodeset summary:
                 probe  2       
                 save   3       (current)
                 save   563     (voltage)

......9......8......7......6......5......4......3......2......1......0
Number of accepted tran steps =             143

Maximum value achieved for any signal of each quantity: 
V: V(nor1_fanout4.nor13.2:Q) = 1.02 V
I: I(VVDD:p) = 83.46 uA
If your circuit contains signals of the same quantity that are vastly different
        in size (such as high voltage circuitry combined with low voltage
        control circuitry), you should consider specifying global option
        `bin_relref=yes'.

~~~~~~~~~~~~~~~~~~~~~~~~~~~~~~~~~
Post-Transient Simulation Summary
~~~~~~~~~~~~~~~~~~~~~~~~~~~~~~~~~
   -   To further speed up simulation, consider
          add ++aps on command line
~~~~~~~~~~~~~~~~~~~~~~~~~~~~~~~~~


During simulation, the CPU load for active processors is :
         0 (12.6 %)      1 (8.5 %)       2 (3.0 %)       3 (100.0 %)
         4 (2.2 %)       5 (5.7 %)       6 (97.2 %)      7 (27.0 %)
         8 (20.4 %)      9 (3.5 %)      10 (1.1 %)      11 (1.7 %)
        Total: 283.0%
Initial condition solution time: CPU = 16.734 ms, elapsed = 17.6361 ms.
Intrinsic tran analysis time:    CPU = 404.196 ms, elapsed = 489.323 ms.
Opening mt file: 
        /CASNFSHOME2/home/sstatthoudakis/Documents/spectre/Gates/NOR2/nor_validate/corners/corner_pin1/gate_load/nor_ss.mt8
Total time required for tran analysis `transient9': CPU = 429.897 ms, elapsed =
        537.757 ms, util. = 79.9%.
Time accumulated: CPU = 4.76256 s, elapsed = 8.37626 s.
Peak resident memory used = 151 Mbytes.


*************************
Alter Group `altergroup9'
*************************
Time for altergroup9: CPU = 21.278 ms, elapsed = 21.7118 ms.
Time accumulated: CPU = 4.78398 s, elapsed = 8.39964 s.
Peak resident memory used = 151 Mbytes.


******************************************************
Transient Analysis `transient10': time = (0 s -> 2 ns)
******************************************************
DC simulation time: CPU = 19.777 ms, elapsed = 19.7802 ms.

Notice from spectre during transient analysis `transient10'.
    No outputs were found. Loosening output filter criterion to `allpub'.


Opening the PSFXL file ./nor_ss.raw/transient10.tran.tran ...
Important parameter values:
    start = 0 s
    outputstart = 0 s
    stop = 2 ns
    step = 100 fs
    maxstep = 40 ps
    ic = all
    useprevic = no
    skipdc = no
    reltol = 1e-03
    abstol(V) = 1 uV
    abstol(I) = 1 pA
    temp = 0 C
    tnom = 27 C
    tempeffects = all
    errpreset = moderate
    method = traponly
    lteratio = 3.5
    relref = sigglobal
    cmin = 0 F
    gmin = 1 pS


Output and IC/nodeset summary:
                 probe  2       
                 save   3       (current)
                 save   563     (voltage)

......9......8......7......6......5......4......3......2......1......0
Number of accepted tran steps =             138

Maximum value achieved for any signal of each quantity: 
V: V(nor1_fanout4.nor13.1:Q) = 1.052 V
I: I(VVDD:p) = 106.9 uA
If your circuit contains signals of the same quantity that are vastly different
        in size (such as high voltage circuitry combined with low voltage
        control circuitry), you should consider specifying global option
        `bin_relref=yes'.

~~~~~~~~~~~~~~~~~~~~~~~~~~~~~~~~~
Post-Transient Simulation Summary
~~~~~~~~~~~~~~~~~~~~~~~~~~~~~~~~~
   -   To further speed up simulation, consider
          add ++aps on command line
~~~~~~~~~~~~~~~~~~~~~~~~~~~~~~~~~


During simulation, the CPU load for active processors is :
         0 (11.7 %)      1 (8.3 %)       2 (3.0 %)       3 (100.0 %)
         4 (2.4 %)       5 (10.0 %)      6 (97.4 %)      7 (25.5 %)
         8 (19.3 %)      9 (3.6 %)      10 (1.1 %)      11 (1.7 %)
        Total: 284.2%
Initial condition solution time: CPU = 19.906 ms, elapsed = 20.6139 ms.
Intrinsic tran analysis time:    CPU = 391.503 ms, elapsed = 472.766 ms.
Opening mt file: 
        /CASNFSHOME2/home/sstatthoudakis/Documents/spectre/Gates/NOR2/nor_validate/corners/corner_pin1/gate_load/nor_ss.mt9
Total time required for tran analysis `transient10': CPU = 419.976 ms, elapsed
        = 544.27 ms, util. = 77.2%.
Time accumulated: CPU = 5.2162 s, elapsed = 9.00651 s.
Peak resident memory used = 151 Mbytes.


**************************
Alter Group `altergroup10'
**************************
Time for altergroup10: CPU = 20.337 ms, elapsed = 20.72 ms.
Time accumulated: CPU = 5.23666 s, elapsed = 9.02849 s.
Peak resident memory used = 151 Mbytes.


******************************************************
Transient Analysis `transient11': time = (0 s -> 2 ns)
******************************************************
DC simulation time: CPU = 17.975 ms, elapsed = 17.9789 ms.

Notice from spectre during transient analysis `transient11'.
    No outputs were found. Loosening output filter criterion to `allpub'.


Opening the PSFXL file ./nor_ss.raw/transient11.tran.tran ...
Important parameter values:
    start = 0 s
    outputstart = 0 s
    stop = 2 ns
    step = 100 fs
    maxstep = 40 ps
    ic = all
    useprevic = no
    skipdc = no
    reltol = 1e-03
    abstol(V) = 1 uV
    abstol(I) = 1 pA
    temp = 50 C
    tnom = 27 C
    tempeffects = all
    errpreset = moderate
    method = traponly
    lteratio = 3.5
    relref = sigglobal
    cmin = 0 F
    gmin = 1 pS


Output and IC/nodeset summary:
                 probe  2       
                 save   3       (current)
                 save   563     (voltage)

......9......8......7......6......5......4......3......2......1......0
Number of accepted tran steps =             134

Maximum value achieved for any signal of each quantity: 
V: V(nor1_fanout4.nor12.1:Q) = 1.039 V
I: I(VVDD:p) = 100.8 uA
If your circuit contains signals of the same quantity that are vastly different
        in size (such as high voltage circuitry combined with low voltage
        control circuitry), you should consider specifying global option
        `bin_relref=yes'.

~~~~~~~~~~~~~~~~~~~~~~~~~~~~~~~~~
Post-Transient Simulation Summary
~~~~~~~~~~~~~~~~~~~~~~~~~~~~~~~~~
   -   To further speed up simulation, consider
          add ++aps on command line
~~~~~~~~~~~~~~~~~~~~~~~~~~~~~~~~~


During simulation, the CPU load for active processors is :
         0 (11.1 %)      1 (7.8 %)       2 (2.9 %)       3 (100.0 %)
         4 (2.2 %)       5 (14.2 %)      6 (97.6 %)      7 (23.9 %)
         8 (18.2 %)      9 (3.6 %)      10 (1.1 %)      11 (1.6 %)
        Total: 284.2%
Initial condition solution time: CPU = 18.083 ms, elapsed = 18.7199 ms.
Intrinsic tran analysis time:    CPU = 375.548 ms, elapsed = 438.909 ms.
Opening mt file: 
        /CASNFSHOME2/home/sstatthoudakis/Documents/spectre/Gates/NOR2/nor_validate/corners/corner_pin1/gate_load/nor_ss.mt10
Total time required for tran analysis `transient11': CPU = 401.694 ms, elapsed
        = 507.01 ms, util. = 79.2%.
Time accumulated: CPU = 5.65092 s, elapsed = 9.60484 s.
Peak resident memory used = 151 Mbytes.


**************************
Alter Group `altergroup11'
**************************
Time for altergroup11: CPU = 22.103 ms, elapsed = 22.732 ms.
Time accumulated: CPU = 5.67316 s, elapsed = 9.62979 s.
Peak resident memory used = 151 Mbytes.


******************************************************
Transient Analysis `transient12': time = (0 s -> 2 ns)
******************************************************
DC simulation time: CPU = 19.205 ms, elapsed = 19.207 ms.

Notice from spectre during transient analysis `transient12'.
    No outputs were found. Loosening output filter criterion to `allpub'.


Opening the PSFXL file ./nor_ss.raw/transient12.tran.tran ...
Important parameter values:
    start = 0 s
    outputstart = 0 s
    stop = 2 ns
    step = 100 fs
    maxstep = 40 ps
    ic = all
    useprevic = no
    skipdc = no
    reltol = 1e-03
    abstol(V) = 1 uV
    abstol(I) = 1 pA
    temp = 125 C
    tnom = 27 C
    tempeffects = all
    errpreset = moderate
    method = traponly
    lteratio = 3.5
    relref = sigglobal
    cmin = 0 F
    gmin = 1 pS


Output and IC/nodeset summary:
                 probe  2       
                 save   3       (current)
                 save   563     (voltage)

......9......8......7......6......5......4......3......2......1......0
Number of accepted tran steps =             143

Maximum value achieved for any signal of each quantity: 
V: V(nor1_fanout4.nor13.2:Q) = 1.03 V
I: I(VVDD:p) = 78.89 uA
If your circuit contains signals of the same quantity that are vastly different
        in size (such as high voltage circuitry combined with low voltage
        control circuitry), you should consider specifying global option
        `bin_relref=yes'.

~~~~~~~~~~~~~~~~~~~~~~~~~~~~~~~~~
Post-Transient Simulation Summary
~~~~~~~~~~~~~~~~~~~~~~~~~~~~~~~~~
   -   To further speed up simulation, consider
          add ++aps on command line
~~~~~~~~~~~~~~~~~~~~~~~~~~~~~~~~~


During simulation, the CPU load for active processors is :
         0 (10.5 %)      1 (7.3 %)       2 (2.8 %)       3 (100.0 %)
         4 (2.1 %)       5 (18.2 %)      6 (97.7 %)      7 (22.4 %)
         8 (17.1 %)      9 (3.5 %)      10 (1.2 %)      11 (1.6 %)
        Total: 284.3%
Initial condition solution time: CPU = 19.319 ms, elapsed = 19.989 ms.
Intrinsic tran analysis time:    CPU = 421.94 ms, elapsed = 496.32 ms.
Opening mt file: 
        /CASNFSHOME2/home/sstatthoudakis/Documents/spectre/Gates/NOR2/nor_validate/corners/corner_pin1/gate_load/nor_ss.mt11
Total time required for tran analysis `transient12': CPU = 451.679 ms, elapsed
        = 570.66 ms, util. = 79.2%.
Time accumulated: CPU = 6.14176 s, elapsed = 10.2743 s.
Peak resident memory used = 151 Mbytes.


**************************
Alter Group `altergroup12'
**************************
Time for altergroup12: CPU = 27.626 ms, elapsed = 28.06 ms.
Time accumulated: CPU = 6.16958 s, elapsed = 10.3037 s.
Peak resident memory used = 151 Mbytes.


******************************************************
Transient Analysis `transient13': time = (0 s -> 2 ns)
******************************************************
DC simulation time: CPU = 22.345 ms, elapsed = 22.3479 ms.

Notice from spectre during transient analysis `transient13'.
    No outputs were found. Loosening output filter criterion to `allpub'.


Opening the PSFXL file ./nor_ss.raw/transient13.tran.tran ...
Important parameter values:
    start = 0 s
    outputstart = 0 s
    stop = 2 ns
    step = 100 fs
    maxstep = 40 ps
    ic = all
    useprevic = no
    skipdc = no
    reltol = 1e-03
    abstol(V) = 1 uV
    abstol(I) = 1 pA
    temp = 0 C
    tnom = 27 C
    tempeffects = all
    errpreset = moderate
    method = traponly
    lteratio = 3.5
    relref = sigglobal
    cmin = 0 F
    gmin = 1 pS


Output and IC/nodeset summary:
                 probe  2       
                 save   3       (current)
                 save   563     (voltage)

......9......8......7......6......5......4......3......2......1......0
Number of accepted tran steps =             144

Maximum value achieved for any signal of each quantity: 
V: V(nor8_fanout4.nor13.1:Q) = 1.06 V
I: I(VVDD:p) = 101.8 uA
If your circuit contains signals of the same quantity that are vastly different
        in size (such as high voltage circuitry combined with low voltage
        control circuitry), you should consider specifying global option
        `bin_relref=yes'.

~~~~~~~~~~~~~~~~~~~~~~~~~~~~~~~~~
Post-Transient Simulation Summary
~~~~~~~~~~~~~~~~~~~~~~~~~~~~~~~~~
   -   To further speed up simulation, consider
          add ++aps on command line
~~~~~~~~~~~~~~~~~~~~~~~~~~~~~~~~~


During simulation, the CPU load for active processors is :
         0 (14.7 %)      1 (7.0 %)       2 (3.1 %)       3 (100.0 %)
         4 (2.2 %)       5 (17.2 %)      6 (97.9 %)      7 (21.0 %)
         8 (16.3 %)      9 (3.3 %)      10 (1.5 %)      11 (1.6 %)
        Total: 285.9%
Initial condition solution time: CPU = 22.48 ms, elapsed = 23.015 ms.
Intrinsic tran analysis time:    CPU = 437.884 ms, elapsed = 493.291 ms.
Opening mt file: 
        /CASNFSHOME2/home/sstatthoudakis/Documents/spectre/Gates/NOR2/nor_validate/corners/corner_pin1/gate_load/nor_ss.mt12
Total time required for tran analysis `transient13': CPU = 471.06 ms, elapsed =
        565.315 ms, util. = 83.3%.
Time accumulated: CPU = 6.6536 s, elapsed = 10.935 s.
Peak resident memory used = 151 Mbytes.


**************************
Alter Group `altergroup13'
**************************
Time for altergroup13: CPU = 20.577 ms, elapsed = 20.987 ms.
Time accumulated: CPU = 6.67428 s, elapsed = 10.9571 s.
Peak resident memory used = 151 Mbytes.


******************************************************
Transient Analysis `transient14': time = (0 s -> 2 ns)
******************************************************
DC simulation time: CPU = 18.045 ms, elapsed = 18.05 ms.

Notice from spectre during transient analysis `transient14'.
    No outputs were found. Loosening output filter criterion to `allpub'.


Opening the PSFXL file ./nor_ss.raw/transient14.tran.tran ...
Important parameter values:
    start = 0 s
    outputstart = 0 s
    stop = 2 ns
    step = 100 fs
    maxstep = 40 ps
    ic = all
    useprevic = no
    skipdc = no
    reltol = 1e-03
    abstol(V) = 1 uV
    abstol(I) = 1 pA
    temp = 50 C
    tnom = 27 C
    tempeffects = all
    errpreset = moderate
    method = traponly
    lteratio = 3.5
    relref = sigglobal
    cmin = 0 F
    gmin = 1 pS


Output and IC/nodeset summary:
                 probe  2       
                 save   3       (current)
                 save   563     (voltage)

......9......8......7......6......5......4......3......2......1......0
Number of accepted tran steps =             139

Maximum value achieved for any signal of each quantity: 
V: V(nor8_fanout4.nor13.1:Q) = 1.047 V
I: I(VVDD:p) = 89.72 uA
If your circuit contains signals of the same quantity that are vastly different
        in size (such as high voltage circuitry combined with low voltage
        control circuitry), you should consider specifying global option
        `bin_relref=yes'.

~~~~~~~~~~~~~~~~~~~~~~~~~~~~~~~~~
Post-Transient Simulation Summary
~~~~~~~~~~~~~~~~~~~~~~~~~~~~~~~~~
   -   To further speed up simulation, consider
          add ++aps on command line
~~~~~~~~~~~~~~~~~~~~~~~~~~~~~~~~~


During simulation, the CPU load for active processors is :
         0 (18.1 %)      1 (6.7 %)       2 (3.0 %)       3 (100.0 %)
         4 (2.1 %)       5 (16.4 %)      6 (98.0 %)      7 (19.9 %)
         8 (15.6 %)      9 (3.3 %)      10 (1.5 %)      11 (1.6 %)
        Total: 285.9%
Initial condition solution time: CPU = 18.171 ms, elapsed = 18.7171 ms.
Intrinsic tran analysis time:    CPU = 390.916 ms, elapsed = 449.716 ms.
Opening mt file: 
        /CASNFSHOME2/home/sstatthoudakis/Documents/spectre/Gates/NOR2/nor_validate/corners/corner_pin1/gate_load/nor_ss.mt13
Total time required for tran analysis `transient14': CPU = 417.203 ms, elapsed
        = 510.231 ms, util. = 81.8%.
Time accumulated: CPU = 7.10305 s, elapsed = 11.5351 s.
Peak resident memory used = 151 Mbytes.


**************************
Alter Group `altergroup14'
**************************
Time for altergroup14: CPU = 18.994 ms, elapsed = 19.5441 ms.
Time accumulated: CPU = 7.12215 s, elapsed = 11.5559 s.
Peak resident memory used = 151 Mbytes.


******************************************************
Transient Analysis `transient15': time = (0 s -> 2 ns)
******************************************************
DC simulation time: CPU = 16.989 ms, elapsed = 16.9919 ms.

Notice from spectre during transient analysis `transient15'.
    No outputs were found. Loosening output filter criterion to `allpub'.


Opening the PSFXL file ./nor_ss.raw/transient15.tran.tran ...
Important parameter values:
    start = 0 s
    outputstart = 0 s
    stop = 2 ns
    step = 100 fs
    maxstep = 40 ps
    ic = all
    useprevic = no
    skipdc = no
    reltol = 1e-03
    abstol(V) = 1 uV
    abstol(I) = 1 pA
    temp = 125 C
    tnom = 27 C
    tempeffects = all
    errpreset = moderate
    method = traponly
    lteratio = 3.5
    relref = sigglobal
    cmin = 0 F
    gmin = 1 pS


Output and IC/nodeset summary:
                 probe  2       
                 save   3       (current)
                 save   563     (voltage)

......9......8......7......6......5......4......3......2......1......0
Number of accepted tran steps =             142

Maximum value achieved for any signal of each quantity: 
V: V(nor1_fanout4.nor13.2:Q) = 1.041 V
I: I(VVDD:p) = 86.84 uA
If your circuit contains signals of the same quantity that are vastly different
        in size (such as high voltage circuitry combined with low voltage
        control circuitry), you should consider specifying global option
        `bin_relref=yes'.

~~~~~~~~~~~~~~~~~~~~~~~~~~~~~~~~~
Post-Transient Simulation Summary
~~~~~~~~~~~~~~~~~~~~~~~~~~~~~~~~~
   -   To further speed up simulation, consider
          add ++aps on command line
~~~~~~~~~~~~~~~~~~~~~~~~~~~~~~~~~


During simulation, the CPU load for active processors is :
         0 (20.0 %)      1 (6.7 %)       2 (2.8 %)       3 (100.0 %)
         4 (2.4 %)       5 (15.6 %)      6 (98.1 %)      7 (18.9 %)
         8 (15.1 %)      9 (4.1 %)      10 (2.7 %)      11 (1.7 %)
        Total: 288.1%
Initial condition solution time: CPU = 17.083 ms, elapsed = 17.7782 ms.
Intrinsic tran analysis time:    CPU = 396.689 ms, elapsed = 457.977 ms.
Opening mt file: 
        /CASNFSHOME2/home/sstatthoudakis/Documents/spectre/Gates/NOR2/nor_validate/corners/corner_pin1/gate_load/nor_ss.mt14
Total time required for tran analysis `transient15': CPU = 421.764 ms, elapsed
        = 561.811 ms, util. = 75.1%.
Time accumulated: CPU = 7.55581 s, elapsed = 12.1873 s.
Peak resident memory used = 151 Mbytes.


**************************
Alter Group `altergroup15'
**************************
Time for altergroup15: CPU = 19.884 ms, elapsed = 20.3352 ms.
Time accumulated: CPU = 7.5758 s, elapsed = 12.2091 s.
Peak resident memory used = 151 Mbytes.


******************************************************
Transient Analysis `transient16': time = (0 s -> 2 ns)
******************************************************
DC simulation time: CPU = 19.006 ms, elapsed = 19.0089 ms.

Notice from spectre during transient analysis `transient16'.
    No outputs were found. Loosening output filter criterion to `allpub'.


Opening the PSFXL file ./nor_ss.raw/transient16.tran.tran ...
Important parameter values:
    start = 0 s
    outputstart = 0 s
    stop = 2 ns
    step = 100 fs
    maxstep = 40 ps
    ic = all
    useprevic = no
    skipdc = no
    reltol = 1e-03
    abstol(V) = 1 uV
    abstol(I) = 1 pA
    temp = 0 C
    tnom = 27 C
    tempeffects = all
    errpreset = moderate
    method = traponly
    lteratio = 3.5
    relref = sigglobal
    cmin = 0 F
    gmin = 1 pS


Output and IC/nodeset summary:
                 probe  2       
                 save   3       (current)
                 save   563     (voltage)

......9......8......7......6......5......4......3......2......1......0
Number of accepted tran steps =             148

Maximum value achieved for any signal of each quantity: 
V: V(nor8_fanout4.nor12.1:Q) = 1.069 V
I: I(VVDD:p) = 86.51 uA
If your circuit contains signals of the same quantity that are vastly different
        in size (such as high voltage circuitry combined with low voltage
        control circuitry), you should consider specifying global option
        `bin_relref=yes'.

~~~~~~~~~~~~~~~~~~~~~~~~~~~~~~~~~
Post-Transient Simulation Summary
~~~~~~~~~~~~~~~~~~~~~~~~~~~~~~~~~
   -   To further speed up simulation, consider
          add ++aps on command line
~~~~~~~~~~~~~~~~~~~~~~~~~~~~~~~~~


During simulation, the CPU load for active processors is :
         0 (19.0 %)      1 (6.4 %)       2 (2.7 %)       3 (100.0 %)
         4 (6.0 %)       5 (14.8 %)      6 (98.2 %)      7 (18.0 %)
         8 (14.8 %)      9 (3.9 %)      10 (3.6 %)      11 (1.6 %)
        Total: 288.9%
Initial condition solution time: CPU = 19.123 ms, elapsed = 19.6688 ms.
Intrinsic tran analysis time:    CPU = 405.757 ms, elapsed = 466.083 ms.
Opening mt file: 
        /CASNFSHOME2/home/sstatthoudakis/Documents/spectre/Gates/NOR2/nor_validate/corners/corner_pin1/gate_load/nor_ss.mt15
Total time required for tran analysis `transient16': CPU = 432.598 ms, elapsed
        = 540.648 ms, util. = 80%.
Time accumulated: CPU = 8.02048 s, elapsed = 12.8363 s.
Peak resident memory used = 151 Mbytes.


**************************
Alter Group `altergroup16'
**************************
Time for altergroup16: CPU = 18.901 ms, elapsed = 19.4178 ms.
Time accumulated: CPU = 8.03949 s, elapsed = 12.8573 s.
Peak resident memory used = 151 Mbytes.


******************************************************
Transient Analysis `transient17': time = (0 s -> 2 ns)
******************************************************
DC simulation time: CPU = 17.199 ms, elapsed = 17.2021 ms.

Notice from spectre during transient analysis `transient17'.
    No outputs were found. Loosening output filter criterion to `allpub'.


Opening the PSFXL file ./nor_ss.raw/transient17.tran.tran ...
Important parameter values:
    start = 0 s
    outputstart = 0 s
    stop = 2 ns
    step = 100 fs
    maxstep = 40 ps
    ic = all
    useprevic = no
    skipdc = no
    reltol = 1e-03
    abstol(V) = 1 uV
    abstol(I) = 1 pA
    temp = 50 C
    tnom = 27 C
    tempeffects = all
    errpreset = moderate
    method = traponly
    lteratio = 3.5
    relref = sigglobal
    cmin = 0 F
    gmin = 1 pS


Output and IC/nodeset summary:
                 probe  2       
                 save   3       (current)
                 save   563     (voltage)

......9......8......7......6......5......4......3......2......1......0
Number of accepted tran steps =             147

Maximum value achieved for any signal of each quantity: 
V: V(nor1_fanout4.nor13.1:Q) = 1.058 V
I: I(VVDD:p) = 81.28 uA
If your circuit contains signals of the same quantity that are vastly different
        in size (such as high voltage circuitry combined with low voltage
        control circuitry), you should consider specifying global option
        `bin_relref=yes'.

~~~~~~~~~~~~~~~~~~~~~~~~~~~~~~~~~
Post-Transient Simulation Summary
~~~~~~~~~~~~~~~~~~~~~~~~~~~~~~~~~
   -   To further speed up simulation, consider
          add ++aps on command line
~~~~~~~~~~~~~~~~~~~~~~~~~~~~~~~~~


During simulation, the CPU load for active processors is :
         0 (18.2 %)      1 (6.1 %)       2 (2.6 %)       3 (100.0 %)
         4 (9.1 %)       5 (14.1 %)      6 (98.3 %)      7 (17.2 %)
         8 (14.5 %)      9 (3.7 %)      10 (3.8 %)      11 (1.5 %)
        Total: 289.1%
Initial condition solution time: CPU = 17.295 ms, elapsed = 17.9732 ms.
Intrinsic tran analysis time:    CPU = 389.149 ms, elapsed = 469.844 ms.
Opening mt file: 
        /CASNFSHOME2/home/sstatthoudakis/Documents/spectre/Gates/NOR2/nor_validate/corners/corner_pin1/gate_load/nor_ss.mt16
Total time required for tran analysis `transient17': CPU = 413.896 ms, elapsed
        = 513.07 ms, util. = 80.7%.
Time accumulated: CPU = 8.46617 s, elapsed = 13.4507 s.
Peak resident memory used = 151 Mbytes.


**************************
Alter Group `altergroup17'
**************************
Time for altergroup17: CPU = 19.262 ms, elapsed = 19.845 ms.
Time accumulated: CPU = 8.48556 s, elapsed = 13.4721 s.
Peak resident memory used = 151 Mbytes.


******************************************************
Transient Analysis `transient18': time = (0 s -> 2 ns)
******************************************************
DC simulation time: CPU = 17.352 ms, elapsed = 17.3562 ms.

Notice from spectre during transient analysis `transient18'.
    No outputs were found. Loosening output filter criterion to `allpub'.


Opening the PSFXL file ./nor_ss.raw/transient18.tran.tran ...
Important parameter values:
    start = 0 s
    outputstart = 0 s
    stop = 2 ns
    step = 100 fs
    maxstep = 40 ps
    ic = all
    useprevic = no
    skipdc = no
    reltol = 1e-03
    abstol(V) = 1 uV
    abstol(I) = 1 pA
    temp = 125 C
    tnom = 27 C
    tempeffects = all
    errpreset = moderate
    method = traponly
    lteratio = 3.5
    relref = sigglobal
    cmin = 0 F
    gmin = 1 pS


Output and IC/nodeset summary:
                 probe  2       
                 save   3       (current)
                 save   563     (voltage)

......9......8......7......6......5......4......3......2......1......0
Number of accepted tran steps =             143

Maximum value achieved for any signal of each quantity: 
V: V(nor1_fanout4.nor12.2:Q) = 1.051 V
I: I(VVDD:p) = 91.3 uA
If your circuit contains signals of the same quantity that are vastly different
        in size (such as high voltage circuitry combined with low voltage
        control circuitry), you should consider specifying global option
        `bin_relref=yes'.

~~~~~~~~~~~~~~~~~~~~~~~~~~~~~~~~~
Post-Transient Simulation Summary
~~~~~~~~~~~~~~~~~~~~~~~~~~~~~~~~~
   -   To further speed up simulation, consider
          add ++aps on command line
~~~~~~~~~~~~~~~~~~~~~~~~~~~~~~~~~


During simulation, the CPU load for active processors is :
         0 (17.8 %)      1 (5.9 %)       2 (2.7 %)       3 (100.0 %)
         4 (9.1 %)       5 (16.7 %)      6 (98.4 %)      7 (16.9 %)
         8 (14.3 %)      9 (3.6 %)      10 (3.7 %)      11 (1.6 %)
        Total: 290.6%
Initial condition solution time: CPU = 17.455 ms, elapsed = 18.5759 ms.
Intrinsic tran analysis time:    CPU = 395.459 ms, elapsed = 483.717 ms.
Opening mt file: 
        /CASNFSHOME2/home/sstatthoudakis/Documents/spectre/Gates/NOR2/nor_validate/corners/corner_pin1/gate_load/nor_ss.mt17
Total time required for tran analysis `transient18': CPU = 421.798 ms, elapsed
        = 561.165 ms, util. = 75.2%.
Time accumulated: CPU = 8.91989 s, elapsed = 14.1053 s.
Peak resident memory used = 152 Mbytes.


**************************
Alter Group `altergroup18'
**************************
Time for altergroup18: CPU = 27.397 ms, elapsed = 27.9219 ms.
Time accumulated: CPU = 8.9475 s, elapsed = 14.1348 s.
Peak resident memory used = 152 Mbytes.


******************************************************
Transient Analysis `transient19': time = (0 s -> 2 ns)
******************************************************
DC simulation time: CPU = 16.909 ms, elapsed = 16.912 ms.

Notice from spectre during transient analysis `transient19'.
    No outputs were found. Loosening output filter criterion to `allpub'.


Opening the PSFXL file ./nor_ss.raw/transient19.tran.tran ...
Important parameter values:
    start = 0 s
    outputstart = 0 s
    stop = 2 ns
    step = 100 fs
    maxstep = 40 ps
    ic = all
    useprevic = no
    skipdc = no
    reltol = 1e-03
    abstol(V) = 1 uV
    abstol(I) = 1 pA
    temp = 0 C
    tnom = 27 C
    tempeffects = all
    errpreset = moderate
    method = traponly
    lteratio = 3.5
    relref = sigglobal
    cmin = 0 F
    gmin = 1 pS


Output and IC/nodeset summary:
                 probe  2       
                 save   3       (current)
                 save   563     (voltage)

......9......8......7......6......5......4......3......2......1......0
Number of accepted tran steps =             150

Maximum value achieved for any signal of each quantity: 
V: V(nor1_fanout4.nor13.1:Q) = 1.079 V
I: I(VVDD:p) = 88.12 uA
If your circuit contains signals of the same quantity that are vastly different
        in size (such as high voltage circuitry combined with low voltage
        control circuitry), you should consider specifying global option
        `bin_relref=yes'.

~~~~~~~~~~~~~~~~~~~~~~~~~~~~~~~~~
Post-Transient Simulation Summary
~~~~~~~~~~~~~~~~~~~~~~~~~~~~~~~~~
   -   To further speed up simulation, consider
          add ++aps on command line
~~~~~~~~~~~~~~~~~~~~~~~~~~~~~~~~~


During simulation, the CPU load for active processors is :
         0 (17.1 %)      1 (5.7 %)       2 (2.6 %)       3 (100.0 %)
         4 (8.7 %)       5 (19.2 %)      6 (98.4 %)      7 (16.7 %)
         8 (14.3 %)      9 (3.5 %)      10 (3.6 %)      11 (1.5 %)
        Total: 291.3%
Initial condition solution time: CPU = 17.015 ms, elapsed = 17.7739 ms.
Intrinsic tran analysis time:    CPU = 392.649 ms, elapsed = 472.606 ms.
Opening mt file: 
        /CASNFSHOME2/home/sstatthoudakis/Documents/spectre/Gates/NOR2/nor_validate/corners/corner_pin1/gate_load/nor_ss.mt18
Total time required for tran analysis `transient19': CPU = 417.183 ms, elapsed
        = 546.83 ms, util. = 76.3%.
Time accumulated: CPU = 9.37653 s, elapsed = 14.7564 s.
Peak resident memory used = 152 Mbytes.


**************************
Alter Group `altergroup19'
**************************
Time for altergroup19: CPU = 18.118 ms, elapsed = 18.5449 ms.
Time accumulated: CPU = 9.39476 s, elapsed = 14.7763 s.
Peak resident memory used = 152 Mbytes.


******************************************************
Transient Analysis `transient20': time = (0 s -> 2 ns)
******************************************************
DC simulation time: CPU = 16.871 ms, elapsed = 16.8731 ms.

Notice from spectre during transient analysis `transient20'.
    No outputs were found. Loosening output filter criterion to `allpub'.


Opening the PSFXL file ./nor_ss.raw/transient20.tran.tran ...
Important parameter values:
    start = 0 s
    outputstart = 0 s
    stop = 2 ns
    step = 100 fs
    maxstep = 40 ps
    ic = all
    useprevic = no
    skipdc = no
    reltol = 1e-03
    abstol(V) = 1 uV
    abstol(I) = 1 pA
    temp = 50 C
    tnom = 27 C
    tempeffects = all
    errpreset = moderate
    method = traponly
    lteratio = 3.5
    relref = sigglobal
    cmin = 0 F
    gmin = 1 pS


Output and IC/nodeset summary:
                 probe  2       
                 save   3       (current)
                 save   563     (voltage)

......9......8......7......6......5......4......3......2......1......0
Number of accepted tran steps =             148

Maximum value achieved for any signal of each quantity: 
V: V(nor1_fanout4.nor13.1:Q) = 1.068 V
I: I(VVDD:p) = 90.32 uA
If your circuit contains signals of the same quantity that are vastly different
        in size (such as high voltage circuitry combined with low voltage
        control circuitry), you should consider specifying global option
        `bin_relref=yes'.

~~~~~~~~~~~~~~~~~~~~~~~~~~~~~~~~~
Post-Transient Simulation Summary
~~~~~~~~~~~~~~~~~~~~~~~~~~~~~~~~~
   -   To further speed up simulation, consider
          add ++aps on command line
~~~~~~~~~~~~~~~~~~~~~~~~~~~~~~~~~


During simulation, the CPU load for active processors is :
         0 (16.4 %)      1 (5.8 %)       2 (2.5 %)       3 (100.0 %)
         4 (8.5 %)       5 (19.0 %)      6 (98.5 %)      7 (16.8 %)
         8 (16.6 %)      9 (3.4 %)      10 (3.5 %)      11 (1.4 %)
        Total: 292.4%
Initial condition solution time: CPU = 16.965 ms, elapsed = 17.7178 ms.
Intrinsic tran analysis time:    CPU = 401.042 ms, elapsed = 477.164 ms.
Opening mt file: 
        /CASNFSHOME2/home/sstatthoudakis/Documents/spectre/Gates/NOR2/nor_validate/corners/corner_pin1/gate_load/nor_ss.mt19
Total time required for tran analysis `transient20': CPU = 425.729 ms, elapsed
        = 550.996 ms, util. = 77.3%.
Time accumulated: CPU = 9.83507 s, elapsed = 15.4158 s.
Peak resident memory used = 152 Mbytes.


**************************
Alter Group `altergroup20'
**************************
Time for altergroup20: CPU = 19.52 ms, elapsed = 19.9931 ms.
Time accumulated: CPU = 9.85471 s, elapsed = 15.4369 s.
Peak resident memory used = 152 Mbytes.


******************************************************
Transient Analysis `transient21': time = (0 s -> 2 ns)
******************************************************
DC simulation time: CPU = 17.694 ms, elapsed = 17.6969 ms.

Notice from spectre during transient analysis `transient21'.
    No outputs were found. Loosening output filter criterion to `allpub'.


Opening the PSFXL file ./nor_ss.raw/transient21.tran.tran ...
Important parameter values:
    start = 0 s
    outputstart = 0 s
    stop = 2 ns
    step = 100 fs
    maxstep = 40 ps
    ic = all
    useprevic = no
    skipdc = no
    reltol = 1e-03
    abstol(V) = 1 uV
    abstol(I) = 1 pA
    temp = 125 C
    tnom = 27 C
    tempeffects = all
    errpreset = moderate
    method = traponly
    lteratio = 3.5
    relref = sigglobal
    cmin = 0 F
    gmin = 1 pS


Output and IC/nodeset summary:
                 probe  2       
                 save   3       (current)
                 save   563     (voltage)

......9......8......7......6......5......4......3......2......1......0
Number of accepted tran steps =             145

Maximum value achieved for any signal of each quantity: 
V: V(nor1_fanout4.nor12.2:Q) = 1.061 V
I: I(VVDD:p) = 94.24 uA
If your circuit contains signals of the same quantity that are vastly different
        in size (such as high voltage circuitry combined with low voltage
        control circuitry), you should consider specifying global option
        `bin_relref=yes'.

~~~~~~~~~~~~~~~~~~~~~~~~~~~~~~~~~
Post-Transient Simulation Summary
~~~~~~~~~~~~~~~~~~~~~~~~~~~~~~~~~
   -   To further speed up simulation, consider
          add ++aps on command line
~~~~~~~~~~~~~~~~~~~~~~~~~~~~~~~~~


During simulation, the CPU load for active processors is :
         0 (17.5 %)      1 (5.5 %)       2 (2.4 %)       3 (100.0 %)
         4 (8.2 %)       5 (19.2 %)      6 (98.6 %)      7 (16.9 %)
         8 (16.4 %)      9 (3.3 %)      10 (3.3 %)      11 (1.5 %)
        Total: 292.9%
Initial condition solution time: CPU = 17.791 ms, elapsed = 18.5921 ms.
Intrinsic tran analysis time:    CPU = 364.5 ms, elapsed = 449.904 ms.
Opening mt file: 
        /CASNFSHOME2/home/sstatthoudakis/Documents/spectre/Gates/NOR2/nor_validate/corners/corner_pin1/gate_load/nor_ss.mt20
Total time required for tran analysis `transient21': CPU = 389.361 ms, elapsed
        = 510.493 ms, util. = 76.3%.
Time accumulated: CPU = 10.2574 s, elapsed = 16.0371 s.
Peak resident memory used = 152 Mbytes.


**************************
Alter Group `altergroup21'
**************************
Time for altergroup21: CPU = 20.824 ms, elapsed = 21.3759 ms.
Time accumulated: CPU = 10.2783 s, elapsed = 16.0605 s.
Peak resident memory used = 152 Mbytes.


******************************************************
Transient Analysis `transient22': time = (0 s -> 2 ns)
******************************************************
DC simulation time: CPU = 16.577 ms, elapsed = 16.5789 ms.

Notice from spectre during transient analysis `transient22'.
    No outputs were found. Loosening output filter criterion to `allpub'.


Opening the PSFXL file ./nor_ss.raw/transient22.tran.tran ...
Important parameter values:
    start = 0 s
    outputstart = 0 s
    stop = 2 ns
    step = 100 fs
    maxstep = 40 ps
    ic = all
    useprevic = no
    skipdc = no
    reltol = 1e-03
    abstol(V) = 1 uV
    abstol(I) = 1 pA
    temp = 0 C
    tnom = 27 C
    tempeffects = all
    errpreset = moderate
    method = traponly
    lteratio = 3.5
    relref = sigglobal
    cmin = 0 F
    gmin = 1 pS


Output and IC/nodeset summary:
                 probe  2       
                 save   3       (current)
                 save   563     (voltage)

......9......8......7......6......5......4......3......2......1......0
Number of accepted tran steps =             151

Maximum value achieved for any signal of each quantity: 
V: V(nor1_fanout4.nor13.1:Q) = 1.088 V
I: I(VVDD:p) = 94.73 uA
If your circuit contains signals of the same quantity that are vastly different
        in size (such as high voltage circuitry combined with low voltage
        control circuitry), you should consider specifying global option
        `bin_relref=yes'.

~~~~~~~~~~~~~~~~~~~~~~~~~~~~~~~~~
Post-Transient Simulation Summary
~~~~~~~~~~~~~~~~~~~~~~~~~~~~~~~~~
   -   To further speed up simulation, consider
          add ++aps on command line
~~~~~~~~~~~~~~~~~~~~~~~~~~~~~~~~~


During simulation, the CPU load for active processors is :
         0 (16.8 %)      1 (5.3 %)       2 (2.5 %)       3 (100.0 %)
         4 (7.9 %)       5 (21.4 %)      6 (98.6 %)      7 (17.0 %)
         8 (16.2 %)      9 (3.3 %)      10 (3.2 %)      11 (1.5 %)
        Total: 293.8%
Initial condition solution time: CPU = 16.669 ms, elapsed = 17.519 ms.
Intrinsic tran analysis time:    CPU = 412.227 ms, elapsed = 488.174 ms.
Opening mt file: 
        /CASNFSHOME2/home/sstatthoudakis/Documents/spectre/Gates/NOR2/nor_validate/corners/corner_pin1/gate_load/nor_ss.mt21
Total time required for tran analysis `transient22': CPU = 436.867 ms, elapsed
        = 547.797 ms, util. = 79.7%.
Time accumulated: CPU = 10.7285 s, elapsed = 16.6979 s.
Peak resident memory used = 152 Mbytes.


**************************
Alter Group `altergroup22'
**************************
Time for altergroup22: CPU = 25.955 ms, elapsed = 26.746 ms.
Time accumulated: CPU = 10.7546 s, elapsed = 16.7265 s.
Peak resident memory used = 152 Mbytes.


******************************************************
Transient Analysis `transient23': time = (0 s -> 2 ns)
******************************************************
DC simulation time: CPU = 20.55 ms, elapsed = 20.5519 ms.

Notice from spectre during transient analysis `transient23'.
    No outputs were found. Loosening output filter criterion to `allpub'.


Opening the PSFXL file ./nor_ss.raw/transient23.tran.tran ...
Important parameter values:
    start = 0 s
    outputstart = 0 s
    stop = 2 ns
    step = 100 fs
    maxstep = 40 ps
    ic = all
    useprevic = no
    skipdc = no
    reltol = 1e-03
    abstol(V) = 1 uV
    abstol(I) = 1 pA
    temp = 50 C
    tnom = 27 C
    tempeffects = all
    errpreset = moderate
    method = traponly
    lteratio = 3.5
    relref = sigglobal
    cmin = 0 F
    gmin = 1 pS


Output and IC/nodeset summary:
                 probe  2       
                 save   3       (current)
                 save   563     (voltage)

......9......8......7......6......5......4......3......2......1......0
Number of accepted tran steps =             149

Maximum value achieved for any signal of each quantity: 
V: V(nor1_fanout4.nor13.2:Q) = 1.078 V
I: I(VVDD:p) = 94.27 uA
If your circuit contains signals of the same quantity that are vastly different
        in size (such as high voltage circuitry combined with low voltage
        control circuitry), you should consider specifying global option
        `bin_relref=yes'.

~~~~~~~~~~~~~~~~~~~~~~~~~~~~~~~~~
Post-Transient Simulation Summary
~~~~~~~~~~~~~~~~~~~~~~~~~~~~~~~~~
   -   To further speed up simulation, consider
          add ++aps on command line
~~~~~~~~~~~~~~~~~~~~~~~~~~~~~~~~~


During simulation, the CPU load for active processors is :
         0 (16.2 %)      1 (5.1 %)       2 (2.9 %)       3 (100.0 %)
         4 (7.7 %)       5 (23.3 %)      6 (98.7 %)      7 (17.1 %)
         8 (16.0 %)      9 (3.1 %)      10 (3.1 %)      11 (1.6 %)
        Total: 294.6%
Initial condition solution time: CPU = 20.67 ms, elapsed = 22.2528 ms.
Intrinsic tran analysis time:    CPU = 398.871 ms, elapsed = 475.251 ms.
Opening mt file: 
        /CASNFSHOME2/home/sstatthoudakis/Documents/spectre/Gates/NOR2/nor_validate/corners/corner_pin1/gate_load/nor_ss.mt22
Total time required for tran analysis `transient23': CPU = 427.849 ms, elapsed
        = 553.532 ms, util. = 77.3%.
Time accumulated: CPU = 11.1936 s, elapsed = 17.3414 s.
Peak resident memory used = 152 Mbytes.


**************************
Alter Group `altergroup23'
**************************
Time for altergroup23: CPU = 17.88 ms, elapsed = 18.0969 ms.
Time accumulated: CPU = 11.2116 s, elapsed = 17.3604 s.
Peak resident memory used = 152 Mbytes.


******************************************************
Transient Analysis `transient24': time = (0 s -> 2 ns)
******************************************************
DC simulation time: CPU = 16.622 ms, elapsed = 16.6252 ms.

Notice from spectre during transient analysis `transient24'.
    No outputs were found. Loosening output filter criterion to `allpub'.


Opening the PSFXL file ./nor_ss.raw/transient24.tran.tran ...
Important parameter values:
    start = 0 s
    outputstart = 0 s
    stop = 2 ns
    step = 100 fs
    maxstep = 40 ps
    ic = all
    useprevic = no
    skipdc = no
    reltol = 1e-03
    abstol(V) = 1 uV
    abstol(I) = 1 pA
    temp = 125 C
    tnom = 27 C
    tempeffects = all
    errpreset = moderate
    method = traponly
    lteratio = 3.5
    relref = sigglobal
    cmin = 0 F
    gmin = 1 pS


Output and IC/nodeset summary:
                 probe  2       
                 save   3       (current)
                 save   563     (voltage)

......9......8......7......6......5......4......3......2......1......0
Number of accepted tran steps =             154

Maximum value achieved for any signal of each quantity: 
V: V(nor10_fanout4.nor13.2:Q) = 1.074 V
I: I(VVDD:p) = 97.64 uA
If your circuit contains signals of the same quantity that are vastly different
        in size (such as high voltage circuitry combined with low voltage
        control circuitry), you should consider specifying global option
        `bin_relref=yes'.

~~~~~~~~~~~~~~~~~~~~~~~~~~~~~~~~~
Post-Transient Simulation Summary
~~~~~~~~~~~~~~~~~~~~~~~~~~~~~~~~~
   -   To further speed up simulation, consider
          add ++aps on command line
~~~~~~~~~~~~~~~~~~~~~~~~~~~~~~~~~


During simulation, the CPU load for active processors is :
         0 (15.7 %)      1 (5.0 %)       2 (2.8 %)       3 (100.0 %)
         4 (7.4 %)       5 (25.2 %)      6 (98.7 %)      7 (16.7 %)
         8 (15.6 %)      9 (3.1 %)      10 (3.0 %)      11 (1.5 %)
        Total: 294.7%
Initial condition solution time: CPU = 16.716 ms, elapsed = 17.241 ms.
Intrinsic tran analysis time:    CPU = 414.291 ms, elapsed = 478.438 ms.
Opening mt file: 
        /CASNFSHOME2/home/sstatthoudakis/Documents/spectre/Gates/NOR2/nor_validate/corners/corner_pin1/gate_load/nor_ss.mt23
Total time required for tran analysis `transient24': CPU = 437.922 ms, elapsed
        = 545.732 ms, util. = 80.2%.
Time accumulated: CPU = 11.6615 s, elapsed = 17.9751 s.
Peak resident memory used = 152 Mbytes.


**************************
Alter Group `altergroup24'
**************************
Time for altergroup24: CPU = 18.264 ms, elapsed = 18.5971 ms.
Time accumulated: CPU = 11.6799 s, elapsed = 17.9947 s.
Peak resident memory used = 152 Mbytes.


******************************************************
Transient Analysis `transient25': time = (0 s -> 2 ns)
******************************************************
DC simulation time: CPU = 16.667 ms, elapsed = 16.6688 ms.

Notice from spectre during transient analysis `transient25'.
    No outputs were found. Loosening output filter criterion to `allpub'.


Opening the PSFXL file ./nor_ss.raw/transient25.tran.tran ...
Important parameter values:
    start = 0 s
    outputstart = 0 s
    stop = 2 ns
    step = 100 fs
    maxstep = 40 ps
    ic = all
    useprevic = no
    skipdc = no
    reltol = 1e-03
    abstol(V) = 1 uV
    abstol(I) = 1 pA
    temp = 0 C
    tnom = 27 C
    tempeffects = all
    errpreset = moderate
    method = traponly
    lteratio = 3.5
    relref = sigglobal
    cmin = 0 F
    gmin = 1 pS


Output and IC/nodeset summary:
                 probe  2       
                 save   3       (current)
                 save   563     (voltage)

......9......8......7......6......5......4......3......2......1......0
Number of accepted tran steps =             157

Maximum value achieved for any signal of each quantity: 
V: V(nor1_fanout4.nor13.1:Q) = 1.098 V
I: I(VVDD:p) = 98.37 uA
If your circuit contains signals of the same quantity that are vastly different
        in size (such as high voltage circuitry combined with low voltage
        control circuitry), you should consider specifying global option
        `bin_relref=yes'.

~~~~~~~~~~~~~~~~~~~~~~~~~~~~~~~~~
Post-Transient Simulation Summary
~~~~~~~~~~~~~~~~~~~~~~~~~~~~~~~~~
   -   To further speed up simulation, consider
          add ++aps on command line
~~~~~~~~~~~~~~~~~~~~~~~~~~~~~~~~~


[...]
DC simulation time: CPU = 22.378 ms, elapsed = 22.3811 ms.

Notice from spectre during transient analysis `transient141'.
    No outputs were found. Loosening output filter criterion to `allpub'.


Opening the PSFXL file ./nor_ss.raw/transient141.tran.tran ...
Important parameter values:
    start = 0 s
    outputstart = 0 s
    stop = 2 ns
    step = 100 fs
    maxstep = 40 ps
    ic = all
    useprevic = no
    skipdc = no
    reltol = 1e-03
    abstol(V) = 1 uV
    abstol(I) = 1 pA
    temp = 125 C
    tnom = 27 C
    tempeffects = all
    errpreset = moderate
    method = traponly
    lteratio = 3.5
    relref = sigglobal
    cmin = 0 F
    gmin = 1 pS


Output and IC/nodeset summary:
                 probe  2       
                 save   3       (current)
                 save   563     (voltage)

......9......8......7......6......5......4......3......2......1......0
Number of accepted tran steps =             223

Maximum value achieved for any signal of each quantity: 
V: V(nor10_fanout4.nor13.2:Q) = 1.479 V
I: I(VGND:p) = 162.6 uA
If your circuit contains signals of the same quantity that are vastly different
        in size (such as high voltage circuitry combined with low voltage
        control circuitry), you should consider specifying global option
        `bin_relref=yes'.

~~~~~~~~~~~~~~~~~~~~~~~~~~~~~~~~~
Post-Transient Simulation Summary
~~~~~~~~~~~~~~~~~~~~~~~~~~~~~~~~~
   -   To further speed up simulation, consider
          add ++aps on command line
~~~~~~~~~~~~~~~~~~~~~~~~~~~~~~~~~


During simulation, the CPU load for active processors is :
         0 (26.1 %)      1 (31.9 %)      2 (12.7 %)      3 (39.1 %)
         4 (61.7 %)      5 (9.3 %)       6 (72.9 %)      7 (32.2 %)
         8 (6.3 %)       9 (3.2 %)      10 (1.8 %)      11 (1.8 %)
        Total: 299.0%
Initial condition solution time: CPU = 22.495 ms, elapsed = 23.283 ms.
Intrinsic tran analysis time:    CPU = 568.236 ms, elapsed = 652.792 ms.
Opening mt file: 
        /CASNFSHOME2/home/sstatthoudakis/Documents/spectre/Gates/NOR2/nor_validate/corners/corner_pin1/gate_load/nor_ss.mt140
Total time required for tran analysis `transient141': CPU = 598.072 ms, elapsed
        = 730.604 ms, util. = 81.9%.
Time accumulated: CPU = 80.0775 s (1m  20.1s), elapsed = 107.875 s (1m 
        47.9s).
Peak resident memory used = 157 Mbytes.


***************************
Alter Group `altergroup141'
***************************
Time for altergroup141: CPU = 19.21 ms, elapsed = 19.7048 ms.
Time accumulated: CPU = 80.0968 s (1m  20.1s), elapsed = 107.897 s (1m 
        47.9s).
Peak resident memory used = 157 Mbytes.


*******************************************************
Transient Analysis `transient142': time = (0 s -> 2 ns)
*******************************************************
DC simulation time: CPU = 19.361 ms, elapsed = 19.3641 ms.

Notice from spectre during transient analysis `transient142'.
    No outputs were found. Loosening output filter criterion to `allpub'.


Opening the PSFXL file ./nor_ss.raw/transient142.tran.tran ...
Important parameter values:
    start = 0 s
    outputstart = 0 s
    stop = 2 ns
    step = 100 fs
    maxstep = 40 ps
    ic = all
    useprevic = no
    skipdc = no
    reltol = 1e-03
    abstol(V) = 1 uV
    abstol(I) = 1 pA
    temp = 0 C
    tnom = 27 C
    tempeffects = all
    errpreset = moderate
    method = traponly
    lteratio = 3.5
    relref = sigglobal
    cmin = 0 F
    gmin = 1 pS


Output and IC/nodeset summary:
                 probe  2       
                 save   3       (current)
                 save   563     (voltage)

......9......8......7......6......5......4......3......2......1......0
Number of accepted tran steps =             241

Maximum value achieved for any signal of each quantity: 
V: V(nor10_fanout4.nor13.2:Q) = 1.497 V
I: I(VGND:p) = 188 uA
If your circuit contains signals of the same quantity that are vastly different
        in size (such as high voltage circuitry combined with low voltage
        control circuitry), you should consider specifying global option
        `bin_relref=yes'.

~~~~~~~~~~~~~~~~~~~~~~~~~~~~~~~~~
Post-Transient Simulation Summary
~~~~~~~~~~~~~~~~~~~~~~~~~~~~~~~~~
   -   To further speed up simulation, consider
          add ++aps on command line
~~~~~~~~~~~~~~~~~~~~~~~~~~~~~~~~~


During simulation, the CPU load for active processors is :
         0 (25.9 %)      1 (32.3 %)      2 (13.4 %)      3 (38.8 %)
         4 (61.2 %)      5 (9.2 %)       6 (72.3 %)      7 (32.8 %)
         8 (6.3 %)       9 (3.2 %)      10 (1.8 %)      11 (1.8 %)
        Total: 299.0%
Initial condition solution time: CPU = 19.453 ms, elapsed = 19.9518 ms.
Intrinsic tran analysis time:    CPU = 639.757 ms, elapsed = 714.545 ms.
Opening mt file: 
        /CASNFSHOME2/home/sstatthoudakis/Documents/spectre/Gates/NOR2/nor_validate/corners/corner_pin1/gate_load/nor_ss.mt141
Total time required for tran analysis `transient142': CPU = 666.162 ms, elapsed
        = 752.1 ms, util. = 88.6%.
Time accumulated: CPU = 80.7763 s (1m  20.8s), elapsed = 108.73 s (1m  48.7s).
Peak resident memory used = 157 Mbytes.


***************************
Alter Group `altergroup142'
***************************
Time for altergroup142: CPU = 19.19 ms, elapsed = 19.5999 ms.
Time accumulated: CPU = 80.7956 s (1m  20.8s), elapsed = 108.752 s (1m 
        48.8s).
Peak resident memory used = 157 Mbytes.


*******************************************************
Transient Analysis `transient143': time = (0 s -> 2 ns)
*******************************************************
DC simulation time: CPU = 20.784 ms, elapsed = 20.7858 ms.

Notice from spectre during transient analysis `transient143'.
    No outputs were found. Loosening output filter criterion to `allpub'.


Opening the PSFXL file ./nor_ss.raw/transient143.tran.tran ...
Important parameter values:
    start = 0 s
    outputstart = 0 s
    stop = 2 ns
    step = 100 fs
    maxstep = 40 ps
    ic = all
    useprevic = no
    skipdc = no
    reltol = 1e-03
    abstol(V) = 1 uV
    abstol(I) = 1 pA
    temp = 50 C
    tnom = 27 C
    tempeffects = all
    errpreset = moderate
    method = traponly
    lteratio = 3.5
    relref = sigglobal
    cmin = 0 F
    gmin = 1 pS


Output and IC/nodeset summary:
                 probe  2       
                 save   3       (current)
                 save   563     (voltage)

......9......8......7......6......5......4......3......2......1......0
Number of accepted tran steps =             231

Maximum value achieved for any signal of each quantity: 
V: V(nor10_fanout4.nor13.2:Q) = 1.494 V
I: I(VGND:p) = 176.7 uA
If your circuit contains signals of the same quantity that are vastly different
        in size (such as high voltage circuitry combined with low voltage
        control circuitry), you should consider specifying global option
        `bin_relref=yes'.

~~~~~~~~~~~~~~~~~~~~~~~~~~~~~~~~~
Post-Transient Simulation Summary
~~~~~~~~~~~~~~~~~~~~~~~~~~~~~~~~~
   -   To further speed up simulation, consider
          add ++aps on command line
~~~~~~~~~~~~~~~~~~~~~~~~~~~~~~~~~


During simulation, the CPU load for active processors is :
         0 (25.7 %)      1 (32.7 %)      2 (14.1 %)      3 (38.5 %)
         4 (60.8 %)      5 (9.2 %)       6 (71.8 %)      7 (33.3 %)
         8 (6.4 %)       9 (3.2 %)      10 (1.8 %)      11 (1.8 %)
        Total: 299.2%
Initial condition solution time: CPU = 20.884 ms, elapsed = 21.3909 ms.
Intrinsic tran analysis time:    CPU = 616.269 ms, elapsed = 678.691 ms.
Opening mt file: 
        /CASNFSHOME2/home/sstatthoudakis/Documents/spectre/Gates/NOR2/nor_validate/corners/corner_pin1/gate_load/nor_ss.mt142
Total time required for tran analysis `transient143': CPU = 644.261 ms, elapsed
        = 749.834 ms, util. = 85.9%.
Time accumulated: CPU = 81.4531 s (1m  21.5s), elapsed = 109.586 s (1m 
        49.6s).
Peak resident memory used = 157 Mbytes.


***************************
Alter Group `altergroup143'
***************************
Time for altergroup143: CPU = 19.81 ms, elapsed = 20.3769 ms.
Time accumulated: CPU = 81.4731 s (1m  21.5s), elapsed = 109.609 s (1m 
        49.6s).
Peak resident memory used = 157 Mbytes.


*******************************************************
Transient Analysis `transient144': time = (0 s -> 2 ns)
*******************************************************

Notice from spectre during IC analysis `timeSweep_cloned_143', during transient
        analysis `transient144'.
    Bad pivoting is found during DC analysis. Option dc_pivot_check=yes is
        recommended for possible improvement of convergence.

DC simulation time: CPU = 22.152 ms, elapsed = 23.5231 ms.

Notice from spectre during transient analysis `transient144'.
    No outputs were found. Loosening output filter criterion to `allpub'.


Opening the PSFXL file ./nor_ss.raw/transient144.tran.tran ...
Important parameter values:
    start = 0 s
    outputstart = 0 s
    stop = 2 ns
    step = 100 fs
    maxstep = 40 ps
    ic = all
    useprevic = no
    skipdc = no
    reltol = 1e-03
    abstol(V) = 1 uV
    abstol(I) = 1 pA
    temp = 125 C
    tnom = 27 C
    tempeffects = all
    errpreset = moderate
    method = traponly
    lteratio = 3.5
    relref = sigglobal
    cmin = 0 F
    gmin = 1 pS


Output and IC/nodeset summary:
                 probe  2       
                 save   3       (current)
                 save   563     (voltage)

......9......8......7......6......5......4......3......2......1......0
Number of accepted tran steps =             221

Maximum value achieved for any signal of each quantity: 
V: V(nor10_fanout4.nor12.2:Q) = 1.489 V
I: I(VGND:p) = 166.1 uA
If your circuit contains signals of the same quantity that are vastly different
        in size (such as high voltage circuitry combined with low voltage
        control circuitry), you should consider specifying global option
        `bin_relref=yes'.

~~~~~~~~~~~~~~~~~~~~~~~~~~~~~~~~~
Post-Transient Simulation Summary
~~~~~~~~~~~~~~~~~~~~~~~~~~~~~~~~~
   -   To further speed up simulation, consider
          add ++aps on command line
~~~~~~~~~~~~~~~~~~~~~~~~~~~~~~~~~


During simulation, the CPU load for active processors is :
         0 (25.5 %)      1 (33.0 %)      2 (14.7 %)      3 (38.3 %)
         4 (60.3 %)      5 (9.2 %)       6 (71.3 %)      7 (33.8 %)
         8 (6.4 %)       9 (3.2 %)      10 (1.8 %)      11 (1.7 %)
        Total: 299.2%
Initial condition solution time: CPU = 22.219 ms, elapsed = 24.132 ms.
Intrinsic tran analysis time:    CPU = 573.18 ms, elapsed = 634.645 ms.
Opening mt file: 
        /CASNFSHOME2/home/sstatthoudakis/Documents/spectre/Gates/NOR2/nor_validate/corners/corner_pin1/gate_load/nor_ss.mt143
Total time required for tran analysis `transient144': CPU = 602.621 ms, elapsed
        = 709.676 ms, util. = 84.9%.
Time accumulated: CPU = 82.0883 s (1m  22.1s), elapsed = 110.406 s (1m 
        50.4s).
Peak resident memory used = 157 Mbytes.


***************************
Alter Group `altergroup144'
***************************
Time for altergroup144: CPU = 19.413 ms, elapsed = 19.701 ms.
Time accumulated: CPU = 82.1079 s (1m  22.1s), elapsed = 110.427 s (1m 
        50.4s).
Peak resident memory used = 157 Mbytes.


*******************************************************
Transient Analysis `transient145': time = (0 s -> 2 ns)
*******************************************************
DC simulation time: CPU = 20.062 ms, elapsed = 20.0651 ms.

Notice from spectre during transient analysis `transient145'.
    No outputs were found. Loosening output filter criterion to `allpub'.


Opening the PSFXL file ./nor_ss.raw/transient145.tran.tran ...
Important parameter values:
    start = 0 s
    outputstart = 0 s
    stop = 2 ns
    step = 100 fs
    maxstep = 40 ps
    ic = all
    useprevic = no
    skipdc = no
    reltol = 1e-03
    abstol(V) = 1 uV
    abstol(I) = 1 pA
    temp = 0 C
    tnom = 27 C
    tempeffects = all
    errpreset = moderate
    method = traponly
    lteratio = 3.5
    relref = sigglobal
    cmin = 0 F
    gmin = 1 pS


Output and IC/nodeset summary:
                 probe  2       
                 save   3       (current)
                 save   563     (voltage)

......9......8......7......6......5......4......3......2......1......0
Number of accepted tran steps =             237

Maximum value achieved for any signal of each quantity: 
V: V(nor10_fanout4.nor11.2:Q) = 1.507 V
I: I(VGND:p) = 191.8 uA
If your circuit contains signals of the same quantity that are vastly different
        in size (such as high voltage circuitry combined with low voltage
        control circuitry), you should consider specifying global option
        `bin_relref=yes'.

~~~~~~~~~~~~~~~~~~~~~~~~~~~~~~~~~
Post-Transient Simulation Summary
~~~~~~~~~~~~~~~~~~~~~~~~~~~~~~~~~
   -   To further speed up simulation, consider
          add ++aps on command line
~~~~~~~~~~~~~~~~~~~~~~~~~~~~~~~~~


During simulation, the CPU load for active processors is :
         0 (25.3 %)      1 (33.4 %)      2 (15.4 %)      3 (38.0 %)
         4 (59.8 %)      5 (9.1 %)       6 (70.9 %)      7 (34.3 %)
         8 (6.4 %)       9 (3.2 %)      10 (1.8 %)      11 (1.7 %)
        Total: 299.3%
Initial condition solution time: CPU = 20.152 ms, elapsed = 20.6401 ms.
Intrinsic tran analysis time:    CPU = 621.156 ms, elapsed = 681.331 ms.
Opening mt file: 
        /CASNFSHOME2/home/sstatthoudakis/Documents/spectre/Gates/NOR2/nor_validate/corners/corner_pin1/gate_load/nor_ss.mt144
Total time required for tran analysis `transient145': CPU = 648.652 ms, elapsed
        = 749.354 ms, util. = 86.6%.
Time accumulated: CPU = 82.7706 s (1m  22.8s), elapsed = 111.262 s (1m 
        51.3s).
Peak resident memory used = 157 Mbytes.


***************************
Alter Group `altergroup145'
***************************
Time for altergroup145: CPU = 22.599 ms, elapsed = 23.1471 ms.
Time accumulated: CPU = 82.7933 s (1m  22.8s), elapsed = 111.286 s (1m 
        51.3s).
Peak resident memory used = 157 Mbytes.


*******************************************************
Transient Analysis `transient146': time = (0 s -> 2 ns)
*******************************************************
DC simulation time: CPU = 24.019 ms, elapsed = 24.024 ms.

Notice from spectre during transient analysis `transient146'.
    No outputs were found. Loosening output filter criterion to `allpub'.


Opening the PSFXL file ./nor_ss.raw/transient146.tran.tran ...
Important parameter values:
    start = 0 s
    outputstart = 0 s
    stop = 2 ns
    step = 100 fs
    maxstep = 40 ps
    ic = all
    useprevic = no
    skipdc = no
    reltol = 1e-03
    abstol(V) = 1 uV
    abstol(I) = 1 pA
    temp = 50 C
    tnom = 27 C
    tempeffects = all
    errpreset = moderate
    method = traponly
    lteratio = 3.5
    relref = sigglobal
    cmin = 0 F
    gmin = 1 pS


Output and IC/nodeset summary:
                 probe  2       
                 save   3       (current)
                 save   563     (voltage)

......9......8......7......6......5......4......3......2......1......0
Number of accepted tran steps =             231

Maximum value achieved for any signal of each quantity: 
V: V(nor10_fanout4.nor11.2:Q) = 1.504 V
I: I(VGND:p) = 180.5 uA
If your circuit contains signals of the same quantity that are vastly different
        in size (such as high voltage circuitry combined with low voltage
        control circuitry), you should consider specifying global option
        `bin_relref=yes'.

~~~~~~~~~~~~~~~~~~~~~~~~~~~~~~~~~
Post-Transient Simulation Summary
~~~~~~~~~~~~~~~~~~~~~~~~~~~~~~~~~
   -   To further speed up simulation, consider
          add ++aps on command line
~~~~~~~~~~~~~~~~~~~~~~~~~~~~~~~~~


During simulation, the CPU load for active processors is :
         0 (25.1 %)      1 (33.7 %)      2 (16.1 %)      3 (37.7 %)
         4 (59.4 %)      5 (9.1 %)       6 (70.4 %)      7 (34.8 %)
         8 (6.5 %)       9 (3.2 %)      10 (1.8 %)      11 (1.8 %)
        Total: 299.6%
Initial condition solution time: CPU = 24.157 ms, elapsed = 24.8041 ms.
Intrinsic tran analysis time:    CPU = 618.668 ms, elapsed = 714.341 ms.
Opening mt file: 
        /CASNFSHOME2/home/sstatthoudakis/Documents/spectre/Gates/NOR2/nor_validate/corners/corner_pin1/gate_load/nor_ss.mt145
Total time required for tran analysis `transient146': CPU = 650.791 ms, elapsed
        = 789.261 ms, util. = 82.5%.
Time accumulated: CPU = 83.4568 s (1m  23.5s), elapsed = 112.157 s (1m 
        52.2s).
Peak resident memory used = 157 Mbytes.


***************************
Alter Group `altergroup146'
***************************
Time for altergroup146: CPU = 20.715 ms, elapsed = 21.275 ms.
Time accumulated: CPU = 83.4777 s (1m  23.5s), elapsed = 112.18 s (1m  52.2s).
Peak resident memory used = 157 Mbytes.


*******************************************************
Transient Analysis `transient147': time = (0 s -> 2 ns)
*******************************************************
DC simulation time: CPU = 23.297 ms, elapsed = 23.3779 ms.

Notice from spectre during transient analysis `transient147'.
    No outputs were found. Loosening output filter criterion to `allpub'.


Opening the PSFXL file ./nor_ss.raw/transient147.tran.tran ...
Important parameter values:
    start = 0 s
    outputstart = 0 s
    stop = 2 ns
    step = 100 fs
    maxstep = 40 ps
    ic = all
    useprevic = no
    skipdc = no
    reltol = 1e-03
    abstol(V) = 1 uV
    abstol(I) = 1 pA
    temp = 125 C
    tnom = 27 C
    tempeffects = all
    errpreset = moderate
    method = traponly
    lteratio = 3.5
    relref = sigglobal
    cmin = 0 F
    gmin = 1 pS


Output and IC/nodeset summary:
                 probe  2       
                 save   3       (current)
                 save   563     (voltage)

......9......8......7......6......5......4......3......2......1......0
Number of accepted tran steps =             223

Maximum value achieved for any signal of each quantity: 
V: V(nor10_fanout4.nor11.2:Q) = 1.499 V
I: I(VGND:p) = 169.4 uA
If your circuit contains signals of the same quantity that are vastly different
        in size (such as high voltage circuitry combined with low voltage
        control circuitry), you should consider specifying global option
        `bin_relref=yes'.

~~~~~~~~~~~~~~~~~~~~~~~~~~~~~~~~~
Post-Transient Simulation Summary
~~~~~~~~~~~~~~~~~~~~~~~~~~~~~~~~~
   -   To further speed up simulation, consider
          add ++aps on command line
~~~~~~~~~~~~~~~~~~~~~~~~~~~~~~~~~


During simulation, the CPU load for active processors is :
         0 (24.9 %)      1 (34.1 %)      2 (16.7 %)      3 (37.5 %)
         4 (59.0 %)      5 (9.0 %)       6 (69.9 %)      7 (35.3 %)
         8 (6.5 %)       9 (3.2 %)      10 (1.8 %)      11 (1.8 %)
        Total: 299.8%
Initial condition solution time: CPU = 23.402 ms, elapsed = 23.946 ms.
Intrinsic tran analysis time:    CPU = 606.671 ms, elapsed = 670.97 ms.
Opening mt file: 
        /CASNFSHOME2/home/sstatthoudakis/Documents/spectre/Gates/NOR2/nor_validate/corners/corner_pin1/gate_load/nor_ss.mt146
Total time required for tran analysis `transient147': CPU = 637.622 ms, elapsed
        = 747.596 ms, util. = 85.3%.
Time accumulated: CPU = 84.1303 s (1m  24.1s), elapsed = 113.058 s (1m 
        53.1s).
Peak resident memory used = 158 Mbytes.

Licensing Information:
Lic Summary:
[14:33:34.179680] Cdslmd servers:5280@10.64.82.10
[14:33:34.179736] Feature usage summary:
[14:33:34.179737] Virtuoso_Multi_mode_Simulation


Aggregate audit (2:33:34 PM, Wed Oct 29, 2025):
Time used: CPU = 84.2 s (1m  24.2s), elapsed = 113 s (1m  53.2s), util. =
        74.4%.
Time spent in licensing: elapsed = 93.6 ms.
Peak memory used = 158 Mbytes.
Simulation started at: 2:31:41 PM, Wed Oct 29, 2025, ended at: 2:33:34 PM, Wed
        Oct 29, 2025, with elapsed time (wall clock): 113 s (1m  53.2s).
spectre completes with 0 errors, 12 warnings, and 277 notices.
