
Spectre (R) Circuit Simulator
Version 23.1.0.242.isr1 64bit -- 7 Sep 2023
Copyright (C) 1989-2023 Cadence Design Systems, Inc. All rights reserved worldwide. Cadence and Spectre are registered trademarks of Cadence Design Systems, Inc. All others are the property of their respective holders.

Includes RSA BSAFE(R) Cryptographic or Security Protocol Software from RSA Security, Inc.

User: sstatthoudakis   Host: torreyridge   HostID: 7F0100   PID: 29217
Memory  available: 104.4808 GB  physical: 135.0278 GB
Linux   : CentOS Linux release 7 (Core)
CPU Type: Intel(R) Xeon(R) Silver 4114 CPU @ 2.20GHz
All processors running at 2194.8 MHz
        Socket: Processors
        0:       0
        2:       1
        4:       2
        6:       3
        8:       4
        10:      5
        12:      6
        14:      7
        16:      8
        18:      9
        20:     10
        22:     11
        
System load averages (1min, 5min, 15min) : 34.8 %, 24.8 %, 22.2 %
This is a virtual machine


Simulating `nor_tt.scs' on torreyridge at 2:33:36 PM, Wed Oct 29, 2025 (process id: 29217).
Current working directory: /CASNFSHOME2/home/sstatthoudakis/Documents/spectre/Gates/NOR2/nor_validate/corners/corner_pin1/gate_load
Command line:
     \
        /CASNFSHOME/home/edatools/cadence/2023-24/RHELx86/SPECTRE_23.10.242/tools.lnx86/bin/spectre  \
        -64 nor_tt.scs

Licensing Information:
[14:33:36.231841] Configured Lic search path (22.01-s002): 5280@10.64.82.10

Licensing Information:
[14:33:36.326138] Periodic Lic check successful

Loading /CASNFSHOME/home/edatools/cadence/2023-24/RHELx86/SPECTRE_23.10.242/tools.lnx86/cmi/lib/64bit/5.0/libinfineon_sh.so ...
Loading /CASNFSHOME/home/edatools/cadence/2023-24/RHELx86/SPECTRE_23.10.242/tools.lnx86/cmi/lib/64bit/5.0/libphilips_I_sh.so ...
Loading /CASNFSHOME/home/edatools/cadence/2023-24/RHELx86/SPECTRE_23.10.242/tools.lnx86/cmi/lib/64bit/5.0/libphilips_sh.so ...
Loading /CASNFSHOME/home/edatools/cadence/2023-24/RHELx86/SPECTRE_23.10.242/tools.lnx86/cmi/lib/64bit/5.0/libsparam_sh.so ...
Loading /CASNFSHOME/home/edatools/cadence/2023-24/RHELx86/SPECTRE_23.10.242/tools.lnx86/cmi/lib/64bit/5.0/libstmodels_sh.so ...
Reading file:  /CASNFSHOME2/home/sstatthoudakis/Documents/spectre/Gates/NOR2/nor_validate/corners/corner_pin1/gate_load/nor_tt.scs
Reading file:  /CASNFSHOME/home/edatools/cadence/2023-24/RHELx86/SPECTRE_23.10.242/tools.lnx86/spectre/etc/configs/spectre.cfg
Reading file:  /CASNFSHOME/home/tsaikaterini/IHP/IHP_Generation_files/130ng/ihp013ng_include_all.scs
Reading file:  /CASNFSHOME/home/tsaikaterini/IHP/IHP_Generation_files/130ng/SG13S_618_rev1.12.15/tech/SG13_HBT/VBIC/spectre/SG13_cornerBIP.scs
Reading file:  /CASNFSHOME/home/tsaikaterini/IHP/IHP_Generation_files/130ng/SG13S_618_rev1.12.15/tech/SG13_HBT/VBIC/spectre/SG13_hbt.lib
Reading file:  /CASNFSHOME/home/tsaikaterini/IHP/IHP_Generation_files/130ng/SG13S_618_rev1.12.15/tech/SG13_HBT/VBIC/spectre/SG13_hbt_mm.scs
Reading file:  /CASNFSHOME/home/tsaikaterini/IHP/IHP_Generation_files/130ng/SG13S_618_rev1.12.15/tech/SG13_HBT/VBIC/spectre/SG13_hbt_stat.scs
Reading file:  /CASNFSHOME/home/tsaikaterini/IHP/IHP_Generation_files/130ng/SG13S_618_rev1.12.15/tech/SG13_MOS/library/spectre/cornerMOSlv_psp.scs
Reading file:  /CASNFSHOME/home/tsaikaterini/IHP/IHP_Generation_files/130ng/SG13S_618_rev1.12.15/tech/SG13_MOS/library/spectre/sg13_moslv_psp_stat.scs
Reading file:  /CASNFSHOME/home/tsaikaterini/IHP/IHP_Generation_files/130ng/SG13S_618_rev1.12.15/tech/SG13_MOS/library/spectre/sg13_moslv_psp_mod.lib
Reading file:  /CASNFSHOME/home/tsaikaterini/IHP/IHP_Generation_files/130ng/SG13S_618_rev1.12.15/tech/SG13_MOS/library/spectre/sg13_moslv_psp_parm.scs
Reading file:  /CASNFSHOME/home/tsaikaterini/IHP/IHP_Generation_files/130ng/SG13S_618_rev1.12.15/tech/SG13_MOS/library/spectre/cornerMOShv_psp.scs
Reading file:  /CASNFSHOME/home/tsaikaterini/IHP/IHP_Generation_files/130ng/SG13S_618_rev1.12.15/tech/SG13_MOS/library/spectre/sg13_moshv_psp_stat.scs
Reading file:  /CASNFSHOME/home/tsaikaterini/IHP/IHP_Generation_files/130ng/SG13S_618_rev1.12.15/tech/SG13_MOS/library/spectre/sg13_moshv_psp_mod.lib
Reading file:  /CASNFSHOME/home/tsaikaterini/IHP/IHP_Generation_files/130ng/SG13S_618_rev1.12.15/tech/SG13_MOS/library/spectre/sg13_moshv_psp_parm.scs

Warning from spectre in `nmoselt', during circuit read-in.
    WARNING (SFE-2296): "/CASNFSHOME/home/tsaikaterini/IHP/IHP_Generation_files/130ng/SG13S_618_rev1.12.15/tech/SG13_MOS/library/spectre/sg13_moshv_psp_mod.lib" 79: The inline subckt definition `nmoselt' does not contain any inline components. The `inline' qualifier will therefore be ignored.

Reading file:  /CASNFSHOME/home/tsaikaterini/IHP/IHP_Generation_files/130ng/SG13S_618_rev1.12.15/tech/SG13_MOS/library/spectre/sg13_svaricaphv_mosvar_mod.lib
Reading file:  /CASNFSHOME/home/tsaikaterini/IHP/IHP_Generation_files/130ng/SG13S_618_rev1.12.15/tech/SG13_PASSIVES/spectre/SG13_cornerRES.scs
Reading file:  /CASNFSHOME/home/tsaikaterini/IHP/IHP_Generation_files/130ng/SG13S_618_rev1.12.15/tech/SG13_PASSIVES/spectre/SG13_res_mm.scs
Reading file:  /CASNFSHOME/home/tsaikaterini/IHP/IHP_Generation_files/130ng/SG13S_618_rev1.12.15/tech/SG13_PASSIVES/spectre/SG13_res_stat.scs
Reading file:  /CASNFSHOME/home/tsaikaterini/IHP/IHP_Generation_files/130ng/SG13S_618_rev1.12.15/tech/SG13_PASSIVES/spectre/SG13_res.lib
Reading file:  /CASNFSHOME/home/tsaikaterini/IHP/IHP_Generation_files/130ng/SG13S_618_rev1.12.15/tech/SG13_PASSIVES/spectre/SG13_cornerCAP.scs
Reading file:  /CASNFSHOME/home/tsaikaterini/IHP/IHP_Generation_files/130ng/SG13S_618_rev1.12.15/tech/SG13_PASSIVES/spectre/SG13_cap_mm.scs
Reading file:  /CASNFSHOME/home/tsaikaterini/IHP/IHP_Generation_files/130ng/SG13S_618_rev1.12.15/tech/SG13_PASSIVES/spectre/SG13_cap_stat.scs
Reading file:  /CASNFSHOME/home/tsaikaterini/IHP/IHP_Generation_files/130ng/SG13S_618_rev1.12.15/tech/SG13_PASSIVES/spectre/SG13_cap.lib
Reading file:  /CASNFSHOME/home/tsaikaterini/IHP/IHP_Generation_files/130ng/SG13S_618_rev1.12.15/tech/SG13_PASSIVES/spectre/Ind_unit_4PI
Reading file:  /CASNFSHOME/home/tsaikaterini/IHP/IHP_Generation_files/130ng/SG13S_618_rev1.12.15/tech/SG13_PASSIVES/spectre/Parameters_define_4PI
Reading file:  /CASNFSHOME/home/tsaikaterini/IHP/IHP_Generation_files/130ng/SG13S_618_rev1.12.15/tech/SG13_PASSIVES/spectre/sg13s_dschottky_nbl1_mod.lib
Reading file:  /CASNFSHOME/home/tsaikaterini/IHP/IHP_Generation_files/130ng/SG13S_618_rev1.12.15/tech/SG13_PASSIVES/spectre/SG13_diodes.lib
Reading file:  /CASNFSHOME/home/tsaikaterini/IHP/IHP_Generation_files/130ng/SG13S_618_rev1.12.15/tech/SG13_MOS/library/spectre/CheckMOSstat.scs
Reading file:  /CASNFSHOME/home/tsaikaterini/IHP/IHP_Generation_files/130ng/SG13S_618_rev1.12.15/tech/SG13_MOS/library/spectre/CheckMOSdyn.scs
Reading file:  /CASNFSHOME/home/tsaikaterini/IHP/IHP_Generation_files/130ng/SG13S_618_rev1.12.15/tech/SG13_ESD/spectre/SG13_esd.lib
Reading file:  /CASNFSHOME/home/tsaikaterini/IHP/IHP_Generation_files/130ng/SG13S_618_rev1.12.15/tech/SG13_PASSIVES/spectre/SG13_cornerTSV.scs
Reading file:  /CASNFSHOME/home/tsaikaterini/IHP/IHP_Generation_files/130ng/SG13S_618_rev1.12.15/tech/SG13_PASSIVES/spectre/SG13_paramsTSV.scs
Reading file:  /CASNFSHOME/home/tsaikaterini/IHP/IHP_Generation_files/130ng/SG13S_618_rev1.12.15/tech/SG13_PASSIVES/spectre/SG13_tsv.lib
Reading file:  /CASNFSHOME/home/tsaikaterini/IHP/IHP_Generation_files/130ng/ixc013ng_stdcell_rc.scs
Time for NDB Parsing: CPU = 616.512 ms, elapsed = 918.619 ms.
Time accumulated: CPU = 740.256 ms, elapsed = 918.622 ms.
Peak resident memory used = 130 Mbytes.


Warning from spectre in `NO2JIX0':`nor1', during hierarchy flattening.
    WARNING (SFE-103): "/CASNFSHOME/home/tsaikaterini/IHP/IHP_Generation_files/130ng/ixc013ng_stdcell_rc.scs" 28325: Subcircuit parameter `nrd', defined for subcircuit `sg13_lv_pmos', has been ignored because it is invalid. Check the parameters that are defined for the instantiated subcircuit and rerun the simulation.
    WARNING (SFE-103): "/CASNFSHOME/home/tsaikaterini/IHP/IHP_Generation_files/130ng/ixc013ng_stdcell_rc.scs" 28325: Subcircuit parameter `nrs', defined for subcircuit `sg13_lv_pmos', has been ignored because it is invalid. Check the parameters that are defined for the instantiated subcircuit and rerun the simulation.
    WARNING (SFE-103): "/CASNFSHOME/home/tsaikaterini/IHP/IHP_Generation_files/130ng/ixc013ng_stdcell_rc.scs" 28328: Subcircuit parameter `nrd', defined for subcircuit `sg13_lv_pmos', has been ignored because it is invalid. Check the parameters that are defined for the instantiated subcircuit and rerun the simulation.
    WARNING (SFE-103): "/CASNFSHOME/home/tsaikaterini/IHP/IHP_Generation_files/130ng/ixc013ng_stdcell_rc.scs" 28328: Subcircuit parameter `nrs', defined for subcircuit `sg13_lv_pmos', has been ignored because it is invalid. Check the parameters that are defined for the instantiated subcircuit and rerun the simulation.
    WARNING (SFE-103): "/CASNFSHOME/home/tsaikaterini/IHP/IHP_Generation_files/130ng/ixc013ng_stdcell_rc.scs" 28330: Subcircuit parameter `nrd', defined for subcircuit `sg13_lv_nmos', has been ignored because it is invalid. Check the parameters that are defined for the instantiated subcircuit and rerun the simulation.
        Further occurrences of this warning will be suppressed.

Time for Elaboration: CPU = 44.976 ms, elapsed = 71.9922 ms.
Time accumulated: CPU = 785.463 ms, elapsed = 993.217 ms.
Peak resident memory used = 139 Mbytes.


Notice from spectre in `NO2JIX0':`nor1', during hierarchy flattening.
    nor1.c6: Terminals are connected together (to node `VSS').
Notice from spectre in `NO2JIX0':`nor2', during hierarchy flattening.
    nor2.c6: Terminals are connected together (to node `VSS').
Notice from spectre in `NO2JIX0':`nor3', during hierarchy flattening.
    nor3.c6: Terminals are connected together (to node `VSS').
Notice from spectre in `NO2JIX0':`nor4', during hierarchy flattening.
    nor4.c6: Terminals are connected together (to node `VSS').
Notice from spectre in `NO2JIX0':`nor5', during hierarchy flattening.
    nor5.c6: Terminals are connected together (to node `VSS').
        Further occurrences of this notice will be suppressed.

Loading /CASNFSHOME/home/edatools/cadence/2023-24/RHELx86/SPECTRE_23.10.242/tools.lnx86/mdl/lib/64bit/libSpectreEH_sh.so ...

Time for EDB Visiting: CPU = 42.851 ms, elapsed = 58.0289 ms.
Time accumulated: CPU = 828.54 ms, elapsed = 1.055 s.
Peak resident memory used = 149 Mbytes.


Warning from spectre during initial setup.
    WARNING (SPECTRE-17237): Assert violations will be written to the sqldb file because the 'checklimitdest' option has not been specified.
    WARNING (SPECTRE-17607): Assert `check_sg13s_lv_nmosHV_vgs' is ignored because it contains an expression which is not supported by native evaluator. 
    WARNING (SPECTRE-17607): Assert `check_sg13s_lv_nmosHV_vgd' is ignored because it contains an expression which is not supported by native evaluator. 
    WARNING (SPECTRE-17607): Assert `check_sg13s_lv_nmosHV_vds' is ignored because it contains an expression which is not supported by native evaluator. 
    WARNING (SPECTRE-17607): Assert `check_sg13s_lv_nmosHV_vdb' is ignored because it contains an expression which is not supported by native evaluator. 
    WARNING (SPECTRE-17607): Assert `check_sg13s_lv_nmosHV_vgb' is ignored because it contains an expression which is not supported by native evaluator. 
        Further occurrences of this warning will be suppressed.


Global user options:
               temp = 0

Scoped user options:

Circuit inventory:
              nodes 563
          capacitor 680   
          pspnqs103 160   
           resistor 480   
            vsource 3     

Analysis and control statement inventory:
         altergroup 146   
               tran 147   

Output statements:
             .probe 0     
           .measure 3     
               save 0     

Design checks inventory:
          paramtest 640   
             assert 40    


Notice from spectre.
    35 notices suppressed.
    322 warnings suppressed.

Time for parsing: CPU = 28.386 ms, elapsed = 1.12889 s.
Time accumulated: CPU = 857.122 ms, elapsed = 2.18776 s.
Peak resident memory used = 153 Mbytes.

~~~~~~~~~~~~~~~~~~~~~~
Pre-Simulation Summary
~~~~~~~~~~~~~~~~~~~~~~
~~~~~~~~~~~~~~~~~~~~~~

Notice from spectre during transient analysis `transient1'.
    No checklimit analysis defined for asserts. A default checklimit analysis 'SpectreChecklimitAnal' has been created with all asserts enabled.


*****************************************************
Transient Analysis `transient1': time = (0 s -> 2 ns)
*****************************************************
DC simulation time: CPU = 17.299 ms, elapsed = 17.302 ms.

Notice from spectre during transient analysis `transient1'.
    No outputs were found. Loosening output filter criterion to `allpub'.


Opening the PSFXL file ./nor_tt.raw/transient1.tran.tran ...
Important parameter values:
    start = 0 s
    outputstart = 0 s
    stop = 2 ns
    step = 100 fs
    maxstep = 40 ps
    ic = all
    useprevic = no
    skipdc = no
    reltol = 1e-03
    abstol(V) = 1 uV
    abstol(I) = 1 pA
    temp = 0 C
    tnom = 27 C
    tempeffects = all
    errpreset = moderate
    method = traponly
    lteratio = 3.5
    relref = sigglobal
    cmin = 0 F
    gmin = 1 pS


Output and IC/nodeset summary:
                 probe  2       
                 save   3       (current)
                 save   563     (voltage)

......9......8......7......6......5......4......3......2......1......0
Number of accepted tran steps =             179

Maximum value achieved for any signal of each quantity: 
V: V(nor10_fanout4.nor13.1:Q) = 1.012 V
I: I(VVDD:p) = 95.27 uA
If your circuit contains signals of the same quantity that are vastly different in size (such as high voltage circuitry combined with low voltage control circuitry), you should consider specifying global option `bin_relref=yes'.

~~~~~~~~~~~~~~~~~~~~~~~~~~~~~~~~~
Post-Transient Simulation Summary
~~~~~~~~~~~~~~~~~~~~~~~~~~~~~~~~~
   -   To further speed up simulation, consider
          add ++aps on command line
~~~~~~~~~~~~~~~~~~~~~~~~~~~~~~~~~


During simulation, the CPU load for active processors is :
         0 (3.8 %)       1 (24.8 %)      2 (100.0 %)     3 (1.6 %)
         4 (3.8 %)       5 (4.2 %)       6 (2.6 %)       7 (100.0 %)
         8 (25.1 %)      9 (1.3 %)      10 (1.9 %)      11 (2.2 %)
        Total: 271.3%
Initial condition solution time: CPU = 17.463 ms, elapsed = 17.8909 ms.
Intrinsic tran analysis time:    CPU = 489.991 ms, elapsed = 942.229 ms.
Opening measure  file:  /CASNFSHOME2/home/sstatthoudakis/Documents/spectre/Gates/NOR2/nor_validate/corners/corner_pin1/gate_load/nor_tt.measure
Opening mt file:  /CASNFSHOME2/home/sstatthoudakis/Documents/spectre/Gates/NOR2/nor_validate/corners/corner_pin1/gate_load/nor_tt.mt0
Total time required for tran analysis `transient1': CPU = 582.589 ms, elapsed = 1.21363 s, util. = 48%.
Time accumulated: CPU = 1.45855 s, elapsed = 3.49819 s.
Peak resident memory used = 166 Mbytes.


*************************
Alter Group `altergroup1'
*************************
Time for altergroup1: CPU = 29.992 ms, elapsed = 30.6301 ms.
Time accumulated: CPU = 1.4887 s, elapsed = 3.5306 s.
Peak resident memory used = 166 Mbytes.


*****************************************************
Transient Analysis `transient2': time = (0 s -> 2 ns)
*****************************************************
DC simulation time: CPU = 16.807 ms, elapsed = 16.8111 ms.

Notice from spectre during transient analysis `transient2'.
    No outputs were found. Loosening output filter criterion to `allpub'.


Opening the PSFXL file ./nor_tt.raw/transient2.tran.tran ...
Important parameter values:
    start = 0 s
    outputstart = 0 s
    stop = 2 ns
    step = 100 fs
    maxstep = 40 ps
    ic = all
    useprevic = no
    skipdc = no
    reltol = 1e-03
    abstol(V) = 1 uV
    abstol(I) = 1 pA
    temp = 50 C
    tnom = 27 C
    tempeffects = all
    errpreset = moderate
    method = traponly
    lteratio = 3.5
    relref = sigglobal
    cmin = 0 F
    gmin = 1 pS


Output and IC/nodeset summary:
                 probe  2       
                 save   3       (current)
                 save   563     (voltage)

......9......8......7......6......5......4......3......2......1......0
Number of accepted tran steps =             168

Maximum value achieved for any signal of each quantity: 
V: V(nor10_fanout4.nor13.2:Q) = 1.005 V
I: I(VVDD:p) = 106.4 uA
If your circuit contains signals of the same quantity that are vastly different in size (such as high voltage circuitry combined with low voltage control circuitry), you should consider specifying global option `bin_relref=yes'.

~~~~~~~~~~~~~~~~~~~~~~~~~~~~~~~~~
Post-Transient Simulation Summary
~~~~~~~~~~~~~~~~~~~~~~~~~~~~~~~~~
   -   To further speed up simulation, consider
          add ++aps on command line
~~~~~~~~~~~~~~~~~~~~~~~~~~~~~~~~~


During simulation, the CPU load for active processors is :
         0 (3.2 %)       1 (22.0 %)      2 (100.0 %)     3 (3.0 %)
         4 (3.2 %)       5 (16.8 %)      6 (2.5 %)       7 (100.0 %)
         8 (20.2 %)      9 (1.2 %)      10 (1.5 %)      11 (2.7 %)
        Total: 276.3%
Initial condition solution time: CPU = 16.943 ms, elapsed = 17.6902 ms.
Intrinsic tran analysis time:    CPU = 435.524 ms, elapsed = 511.049 ms.
Opening mt file:  /CASNFSHOME2/home/sstatthoudakis/Documents/spectre/Gates/NOR2/nor_validate/corners/corner_pin1/gate_load/nor_tt.mt1
Total time required for tran analysis `transient2': CPU = 460.376 ms, elapsed = 583.776 ms, util. = 78.9%.
Time accumulated: CPU = 1.96058 s, elapsed = 4.19973 s.
Peak resident memory used = 166 Mbytes.


*************************
Alter Group `altergroup2'
*************************
Time for altergroup2: CPU = 18.012 ms, elapsed = 18.502 ms.
Time accumulated: CPU = 1.97871 s, elapsed = 4.21984 s.
Peak resident memory used = 166 Mbytes.


*****************************************************
Transient Analysis `transient3': time = (0 s -> 2 ns)
*****************************************************
DC simulation time: CPU = 16.74 ms, elapsed = 16.7432 ms.

Notice from spectre during transient analysis `transient3'.
    No outputs were found. Loosening output filter criterion to `allpub'.


Opening the PSFXL file ./nor_tt.raw/transient3.tran.tran ...
Important parameter values:
    start = 0 s
    outputstart = 0 s
    stop = 2 ns
    step = 100 fs
    maxstep = 40 ps
    ic = all
    useprevic = no
    skipdc = no
    reltol = 1e-03
    abstol(V) = 1 uV
    abstol(I) = 1 pA
    temp = 125 C
    tnom = 27 C
    tempeffects = all
    errpreset = moderate
    method = traponly
    lteratio = 3.5
    relref = sigglobal
    cmin = 0 F
    gmin = 1 pS


Output and IC/nodeset summary:
                 probe  2       
                 save   3       (current)
                 save   563     (voltage)

......9......8......7......6......5......4......3......2......1......0
Number of accepted tran steps =             162

Maximum value achieved for any signal of each quantity: 
V: V(nor1_fanout4.nor13.2:Q) = 997.6 mV
I: I(VVDD:p) = 137.8 uA
If your circuit contains signals of the same quantity that are vastly different in size (such as high voltage circuitry combined with low voltage control circuitry), you should consider specifying global option `bin_relref=yes'.

~~~~~~~~~~~~~~~~~~~~~~~~~~~~~~~~~
Post-Transient Simulation Summary
~~~~~~~~~~~~~~~~~~~~~~~~~~~~~~~~~
   -   To further speed up simulation, consider
          add ++aps on command line
~~~~~~~~~~~~~~~~~~~~~~~~~~~~~~~~~


During simulation, the CPU load for active processors is :
         0 (3.0 %)       1 (18.9 %)      2 (100.0 %)     3 (2.6 %)
         4 (2.8 %)       5 (24.6 %)      6 (2.4 %)       7 (100.0 %)
         8 (17.7 %)      9 (1.1 %)      10 (1.5 %)      11 (2.6 %)
        Total: 276.9%
Initial condition solution time: CPU = 16.841 ms, elapsed = 17.5438 ms.
Intrinsic tran analysis time:    CPU = 407.646 ms, elapsed = 483.185 ms.
Opening mt file:  /CASNFSHOME2/home/sstatthoudakis/Documents/spectre/Gates/NOR2/nor_validate/corners/corner_pin1/gate_load/nor_tt.mt2
Total time required for tran analysis `transient3': CPU = 431.488 ms, elapsed = 551.747 ms, util. = 78.2%.
Time accumulated: CPU = 2.42129 s, elapsed = 4.8372 s.
Peak resident memory used = 166 Mbytes.


*************************
Alter Group `altergroup3'
*************************
Time for altergroup3: CPU = 18.273 ms, elapsed = 18.497 ms.
Time accumulated: CPU = 2.43969 s, elapsed = 4.85697 s.
Peak resident memory used = 166 Mbytes.


*****************************************************
Transient Analysis `transient4': time = (0 s -> 2 ns)
*****************************************************
DC simulation time: CPU = 16.281 ms, elapsed = 16.479 ms.

Notice from spectre during transient analysis `transient4'.
    No outputs were found. Loosening output filter criterion to `allpub'.


Opening the PSFXL file ./nor_tt.raw/transient4.tran.tran ...
Important parameter values:
    start = 0 s
    outputstart = 0 s
    stop = 2 ns
    step = 100 fs
    maxstep = 40 ps
    ic = all
    useprevic = no
    skipdc = no
    reltol = 1e-03
    abstol(V) = 1 uV
    abstol(I) = 1 pA
    temp = 0 C
    tnom = 27 C
    tempeffects = all
    errpreset = moderate
    method = traponly
    lteratio = 3.5
    relref = sigglobal
    cmin = 0 F
    gmin = 1 pS


Output and IC/nodeset summary:
                 probe  2       
                 save   3       (current)
                 save   563     (voltage)

......9......8......7......6......5......4......3......2......1......0
Number of accepted tran steps =             183

Maximum value achieved for any signal of each quantity: 
V: V(nor10_fanout4.nor11.1:Q) = 1.022 V
I: I(VVDD:p) = 121.4 uA
If your circuit contains signals of the same quantity that are vastly different in size (such as high voltage circuitry combined with low voltage control circuitry), you should consider specifying global option `bin_relref=yes'.

~~~~~~~~~~~~~~~~~~~~~~~~~~~~~~~~~
Post-Transient Simulation Summary
~~~~~~~~~~~~~~~~~~~~~~~~~~~~~~~~~
   -   To further speed up simulation, consider
          add ++aps on command line
~~~~~~~~~~~~~~~~~~~~~~~~~~~~~~~~~


During simulation, the CPU load for active processors is :
         0 (3.0 %)       1 (16.8 %)      2 (100.0 %)     3 (3.2 %)
         4 (2.6 %)       5 (31.6 %)      6 (2.2 %)       7 (100.0 %)
         8 (16.2 %)     10 (1.5 %)      11 (2.2 %)      
        Total: 280.3%
Initial condition solution time: CPU = 16.365 ms, elapsed = 17.004 ms.
Intrinsic tran analysis time:    CPU = 464.108 ms, elapsed = 513.88 ms.
Opening mt file:  /CASNFSHOME2/home/sstatthoudakis/Documents/spectre/Gates/NOR2/nor_validate/corners/corner_pin1/gate_load/nor_tt.mt3
Total time required for tran analysis `transient4': CPU = 488.18 ms, elapsed = 582.372 ms, util. = 83.8%.
Time accumulated: CPU = 2.94027 s, elapsed = 5.51079 s.
Peak resident memory used = 166 Mbytes.


*************************
Alter Group `altergroup4'
*************************
Time for altergroup4: CPU = 17.871 ms, elapsed = 18.187 ms.
Time accumulated: CPU = 2.95829 s, elapsed = 5.53042 s.
Peak resident memory used = 166 Mbytes.


*****************************************************
Transient Analysis `transient5': time = (0 s -> 2 ns)
*****************************************************
DC simulation time: CPU = 17.191 ms, elapsed = 17.1969 ms.

Notice from spectre during transient analysis `transient5'.
    No outputs were found. Loosening output filter criterion to `allpub'.


Opening the PSFXL file ./nor_tt.raw/transient5.tran.tran ...
Important parameter values:
    start = 0 s
    outputstart = 0 s
    stop = 2 ns
    step = 100 fs
    maxstep = 40 ps
    ic = all
    useprevic = no
    skipdc = no
    reltol = 1e-03
    abstol(V) = 1 uV
    abstol(I) = 1 pA
    temp = 50 C
    tnom = 27 C
    tempeffects = all
    errpreset = moderate
    method = traponly
    lteratio = 3.5
    relref = sigglobal
    cmin = 0 F
    gmin = 1 pS


Output and IC/nodeset summary:
                 probe  2       
                 save   3       (current)
                 save   563     (voltage)

......9......8......7......6......5......4......3......2......1......0
Number of accepted tran steps =             171

Maximum value achieved for any signal of each quantity: 
V: V(nor10_fanout4.nor13.1:Q) = 1.015 V
I: I(VVDD:p) = 131.2 uA
If your circuit contains signals of the same quantity that are vastly different in size (such as high voltage circuitry combined with low voltage control circuitry), you should consider specifying global option `bin_relref=yes'.

~~~~~~~~~~~~~~~~~~~~~~~~~~~~~~~~~
Post-Transient Simulation Summary
~~~~~~~~~~~~~~~~~~~~~~~~~~~~~~~~~
   -   To further speed up simulation, consider
          add ++aps on command line
~~~~~~~~~~~~~~~~~~~~~~~~~~~~~~~~~


During simulation, the CPU load for active processors is :
         0 (2.8 %)       1 (14.9 %)      2 (100.0 %)     3 (2.8 %)
         4 (2.5 %)       5 (36.6 %)      6 (2.3 %)       7 (100.0 %)
         8 (14.9 %)     10 (1.5 %)      11 (2.2 %)      
        Total: 281.3%
Initial condition solution time: CPU = 17.29 ms, elapsed = 17.828 ms.
Intrinsic tran analysis time:    CPU = 444.966 ms, elapsed = 513.208 ms.
Opening mt file:  /CASNFSHOME2/home/sstatthoudakis/Documents/spectre/Gates/NOR2/nor_validate/corners/corner_pin1/gate_load/nor_tt.mt4
Total time required for tran analysis `transient5': CPU = 470.946 ms, elapsed = 584.656 ms, util. = 80.6%.
Time accumulated: CPU = 3.44167 s, elapsed = 6.19561 s.
Peak resident memory used = 166 Mbytes.


*************************
Alter Group `altergroup5'
*************************
Time for altergroup5: CPU = 20.386 ms, elapsed = 20.8189 ms.
Time accumulated: CPU = 3.4622 s, elapsed = 6.21764 s.
Peak resident memory used = 166 Mbytes.


*****************************************************
Transient Analysis `transient6': time = (0 s -> 2 ns)
*****************************************************
DC simulation time: CPU = 16.909 ms, elapsed = 16.9108 ms.

Notice from spectre during transient analysis `transient6'.
    No outputs were found. Loosening output filter criterion to `allpub'.


Opening the PSFXL file ./nor_tt.raw/transient6.tran.tran ...
Important parameter values:
    start = 0 s
    outputstart = 0 s
    stop = 2 ns
    step = 100 fs
    maxstep = 40 ps
    ic = all
    useprevic = no
    skipdc = no
    reltol = 1e-03
    abstol(V) = 1 uV
    abstol(I) = 1 pA
    temp = 125 C
    tnom = 27 C
    tempeffects = all
    errpreset = moderate
    method = traponly
    lteratio = 3.5
    relref = sigglobal
    cmin = 0 F
    gmin = 1 pS


Output and IC/nodeset summary:
                 probe  2       
                 save   3       (current)
                 save   563     (voltage)

......9......8......7......6......5......4......3......2......1......0
Number of accepted tran steps =             166

Maximum value achieved for any signal of each quantity: 
V: V(nor1_fanout4.nor13.2:Q) = 1.008 V
I: I(VVDD:p) = 143.7 uA
If your circuit contains signals of the same quantity that are vastly different in size (such as high voltage circuitry combined with low voltage control circuitry), you should consider specifying global option `bin_relref=yes'.

~~~~~~~~~~~~~~~~~~~~~~~~~~~~~~~~~
Post-Transient Simulation Summary
~~~~~~~~~~~~~~~~~~~~~~~~~~~~~~~~~
   -   To further speed up simulation, consider
          add ++aps on command line
~~~~~~~~~~~~~~~~~~~~~~~~~~~~~~~~~


During simulation, the CPU load for active processors is :
         0 (2.7 %)       1 (13.5 %)      2 (100.0 %)     3 (3.3 %)
         4 (2.8 %)       5 (40.6 %)      6 (2.8 %)       7 (100.0 %)
         8 (14.6 %)      9 (1.2 %)      10 (1.9 %)      11 (2.4 %)
        Total: 285.7%
Initial condition solution time: CPU = 17.001 ms, elapsed = 17.735 ms.
Intrinsic tran analysis time:    CPU = 443.967 ms, elapsed = 530.358 ms.
Opening mt file:  /CASNFSHOME2/home/sstatthoudakis/Documents/spectre/Gates/NOR2/nor_validate/corners/corner_pin1/gate_load/nor_tt.mt5
Total time required for tran analysis `transient6': CPU = 468.231 ms, elapsed = 601.724 ms, util. = 77.8%.
Time accumulated: CPU = 3.94295 s, elapsed = 6.91971 s.
Peak resident memory used = 166 Mbytes.


*************************
Alter Group `altergroup6'
*************************
Time for altergroup6: CPU = 19.45 ms, elapsed = 20.097 ms.
Time accumulated: CPU = 3.96254 s, elapsed = 6.94184 s.
Peak resident memory used = 166 Mbytes.


*****************************************************
Transient Analysis `transient7': time = (0 s -> 2 ns)
*****************************************************
DC simulation time: CPU = 20.188 ms, elapsed = 20.191 ms.

Notice from spectre during transient analysis `transient7'.
    No outputs were found. Loosening output filter criterion to `allpub'.


Opening the PSFXL file ./nor_tt.raw/transient7.tran.tran ...
Important parameter values:
    start = 0 s
    outputstart = 0 s
    stop = 2 ns
    step = 100 fs
    maxstep = 40 ps
    ic = all
    useprevic = no
    skipdc = no
    reltol = 1e-03
    abstol(V) = 1 uV
    abstol(I) = 1 pA
    temp = 0 C
    tnom = 27 C
    tempeffects = all
    errpreset = moderate
    method = traponly
    lteratio = 3.5
    relref = sigglobal
    cmin = 0 F
    gmin = 1 pS


Output and IC/nodeset summary:
                 probe  2       
                 save   3       (current)
                 save   563     (voltage)

......9......8......7......6......5......4......3......2......1......0
Number of accepted tran steps =             183

Maximum value achieved for any signal of each quantity: 
V: V(nor10_fanout4.nor13.1:Q) = 1.032 V
I: I(VVDD:p) = 144.4 uA
If your circuit contains signals of the same quantity that are vastly different in size (such as high voltage circuitry combined with low voltage control circuitry), you should consider specifying global option `bin_relref=yes'.

~~~~~~~~~~~~~~~~~~~~~~~~~~~~~~~~~
Post-Transient Simulation Summary
~~~~~~~~~~~~~~~~~~~~~~~~~~~~~~~~~
   -   To further speed up simulation, consider
          add ++aps on command line
~~~~~~~~~~~~~~~~~~~~~~~~~~~~~~~~~


During simulation, the CPU load for active processors is :
         0 (9.7 %)       1 (12.6 %)      2 (100.0 %)     3 (3.3 %)
         4 (3.1 %)       5 (37.3 %)      6 (2.8 %)       7 (100.0 %)
         8 (13.5 %)      9 (1.5 %)      10 (2.9 %)      11 (2.3 %)
        Total: 289.1%
Initial condition solution time: CPU = 20.295 ms, elapsed = 21.4372 ms.
Intrinsic tran analysis time:    CPU = 485.186 ms, elapsed = 554.478 ms.
Opening mt file:  /CASNFSHOME2/home/sstatthoudakis/Documents/spectre/Gates/NOR2/nor_validate/corners/corner_pin1/gate_load/nor_tt.mt6
Total time required for tran analysis `transient7': CPU = 513.001 ms, elapsed = 629.93 ms, util. = 81.4%.
Time accumulated: CPU = 4.48919 s, elapsed = 7.67031 s.
Peak resident memory used = 166 Mbytes.


*************************
Alter Group `altergroup7'
*************************
Time for altergroup7: CPU = 19.873 ms, elapsed = 20.3211 ms.
Time accumulated: CPU = 4.50918 s, elapsed = 7.69237 s.
Peak resident memory used = 166 Mbytes.


*****************************************************
Transient Analysis `transient8': time = (0 s -> 2 ns)
*****************************************************

Notice from spectre during IC analysis `timeSweep_cloned_7', during transient analysis `transient8'.
    Bad pivoting is found during DC analysis. Option dc_pivot_check=yes is recommended for possible improvement of convergence.

DC simulation time: CPU = 18.102 ms, elapsed = 19.263 ms.

Notice from spectre during transient analysis `transient8'.
    No outputs were found. Loosening output filter criterion to `allpub'.


Opening the PSFXL file ./nor_tt.raw/transient8.tran.tran ...
Important parameter values:
    start = 0 s
    outputstart = 0 s
    stop = 2 ns
    step = 100 fs
    maxstep = 40 ps
    ic = all
    useprevic = no
    skipdc = no
    reltol = 1e-03
    abstol(V) = 1 uV
    abstol(I) = 1 pA
    temp = 50 C
    tnom = 27 C
    tempeffects = all
    errpreset = moderate
    method = traponly
    lteratio = 3.5
    relref = sigglobal
    cmin = 0 F
    gmin = 1 pS


Output and IC/nodeset summary:
                 probe  2       
                 save   3       (current)
                 save   563     (voltage)

......9......8......7......6......5......4......3......2......1......0
Number of accepted tran steps =             173

Maximum value achieved for any signal of each quantity: 
V: V(nor10_fanout4.nor13.2:Q) = 1.025 V
I: I(VVDD:p) = 146.6 uA
If your circuit contains signals of the same quantity that are vastly different in size (such as high voltage circuitry combined with low voltage control circuitry), you should consider specifying global option `bin_relref=yes'.

~~~~~~~~~~~~~~~~~~~~~~~~~~~~~~~~~
Post-Transient Simulation Summary
~~~~~~~~~~~~~~~~~~~~~~~~~~~~~~~~~
   -   To further speed up simulation, consider
          add ++aps on command line
~~~~~~~~~~~~~~~~~~~~~~~~~~~~~~~~~


During simulation, the CPU load for active processors is :
         0 (9.3 %)       1 (13.5 %)      2 (100.0 %)     3 (7.7 %)
         4 (4.0 %)       5 (34.5 %)      6 (2.8 %)       7 (100.0 %)
         8 (12.7 %)      9 (1.3 %)      10 (2.9 %)      11 (2.3 %)
        Total: 291.1%
Initial condition solution time: CPU = 18.173 ms, elapsed = 19.7489 ms.
Intrinsic tran analysis time:    CPU = 451.479 ms, elapsed = 532.604 ms.
Opening mt file:  /CASNFSHOME2/home/sstatthoudakis/Documents/spectre/Gates/NOR2/nor_validate/corners/corner_pin1/gate_load/nor_tt.mt7
Total time required for tran analysis `transient8': CPU = 477.602 ms, elapsed = 609.885 ms, util. = 78.3%.
Time accumulated: CPU = 5.00025 s, elapsed = 8.3979 s.
Peak resident memory used = 167 Mbytes.


*************************
Alter Group `altergroup8'
*************************
Time for altergroup8: CPU = 21.701 ms, elapsed = 22.346 ms.
Time accumulated: CPU = 5.0221 s, elapsed = 8.42188 s.
Peak resident memory used = 167 Mbytes.


*****************************************************
Transient Analysis `transient9': time = (0 s -> 2 ns)
*****************************************************
DC simulation time: CPU = 17.997 ms, elapsed = 18.0008 ms.

Notice from spectre during transient analysis `transient9'.
    No outputs were found. Loosening output filter criterion to `allpub'.


Opening the PSFXL file ./nor_tt.raw/transient9.tran.tran ...
Important parameter values:
    start = 0 s
    outputstart = 0 s
    stop = 2 ns
    step = 100 fs
    maxstep = 40 ps
    ic = all
    useprevic = no
    skipdc = no
    reltol = 1e-03
    abstol(V) = 1 uV
    abstol(I) = 1 pA
    temp = 125 C
    tnom = 27 C
    tempeffects = all
    errpreset = moderate
    method = traponly
    lteratio = 3.5
    relref = sigglobal
    cmin = 0 F
    gmin = 1 pS


Output and IC/nodeset summary:
                 probe  2       
                 save   3       (current)
                 save   563     (voltage)

......9......8......7......6......5......4......3......2......1......0
Number of accepted tran steps =             169

Maximum value achieved for any signal of each quantity: 
V: V(nor1_fanout4.nor13.2:Q) = 1.019 V
I: I(VVDD:p) = 143.8 uA
If your circuit contains signals of the same quantity that are vastly different in size (such as high voltage circuitry combined with low voltage control circuitry), you should consider specifying global option `bin_relref=yes'.

~~~~~~~~~~~~~~~~~~~~~~~~~~~~~~~~~
Post-Transient Simulation Summary
~~~~~~~~~~~~~~~~~~~~~~~~~~~~~~~~~
   -   To further speed up simulation, consider
          add ++aps on command line
~~~~~~~~~~~~~~~~~~~~~~~~~~~~~~~~~


During simulation, the CPU load for active processors is :
         0 (8.9 %)       1 (12.6 %)      2 (100.0 %)     3 (9.3 %)
         4 (3.9 %)       5 (32.1 %)      6 (3.2 %)       7 (100.0 %)
         8 (12.7 %)      9 (1.6 %)      10 (3.8 %)      11 (5.1 %)
        Total: 293.1%
Initial condition solution time: CPU = 18.118 ms, elapsed = 18.7559 ms.
Intrinsic tran analysis time:    CPU = 429.666 ms, elapsed = 513.921 ms.
Opening mt file:  /CASNFSHOME2/home/sstatthoudakis/Documents/spectre/Gates/NOR2/nor_validate/corners/corner_pin1/gate_load/nor_tt.mt8
Total time required for tran analysis `transient9': CPU = 455.915 ms, elapsed = 595.844 ms, util. = 76.5%.
Time accumulated: CPU = 5.49583 s, elapsed = 9.12931 s.
Peak resident memory used = 167 Mbytes.


*************************
Alter Group `altergroup9'
*************************
Time for altergroup9: CPU = 18.123 ms, elapsed = 19.037 ms.
Time accumulated: CPU = 5.51419 s, elapsed = 9.1544 s.
Peak resident memory used = 167 Mbytes.


******************************************************
Transient Analysis `transient10': time = (0 s -> 2 ns)
******************************************************

Notice from spectre during IC analysis `timeSweep_cloned_9', during transient analysis `transient10'.
    Bad pivoting is found during DC analysis. Option dc_pivot_check=yes is recommended for possible improvement of convergence.

DC simulation time: CPU = 16.827 ms, elapsed = 17.7901 ms.

Notice from spectre during transient analysis `transient10'.
    No outputs were found. Loosening output filter criterion to `allpub'.


Opening the PSFXL file ./nor_tt.raw/transient10.tran.tran ...
Important parameter values:
    start = 0 s
    outputstart = 0 s
    stop = 2 ns
    step = 100 fs
    maxstep = 40 ps
    ic = all
    useprevic = no
    skipdc = no
    reltol = 1e-03
    abstol(V) = 1 uV
    abstol(I) = 1 pA
    temp = 0 C
    tnom = 27 C
    tempeffects = all
    errpreset = moderate
    method = traponly
    lteratio = 3.5
    relref = sigglobal
    cmin = 0 F
    gmin = 1 pS


Output and IC/nodeset summary:
                 probe  2       
                 save   3       (current)
                 save   563     (voltage)

......9......8......7......6......5......4......3......2......1......0
Number of accepted tran steps =             180

Maximum value achieved for any signal of each quantity: 
V: V(nor10_fanout4.nor13.1:Q) = 1.042 V
I: I(VVDD:p) = 155 uA
If your circuit contains signals of the same quantity that are vastly different in size (such as high voltage circuitry combined with low voltage control circuitry), you should consider specifying global option `bin_relref=yes'.

~~~~~~~~~~~~~~~~~~~~~~~~~~~~~~~~~
Post-Transient Simulation Summary
~~~~~~~~~~~~~~~~~~~~~~~~~~~~~~~~~
   -   To further speed up simulation, consider
          add ++aps on command line
~~~~~~~~~~~~~~~~~~~~~~~~~~~~~~~~~


During simulation, the CPU load for active processors is :
         0 (16.6 %)      1 (11.5 %)      2 (88.4 %)      3 (8.6 %)
         4 (10.6 %)      5 (28.6 %)      6 (3.1 %)       7 (100.0 %)
         8 (11.7 %)      9 (1.5 %)      10 (3.6 %)      11 (5.9 %)
        Total: 289.9%
Initial condition solution time: CPU = 16.889 ms, elapsed = 18.1541 ms.
Intrinsic tran analysis time:    CPU = 505.252 ms, elapsed = 997.116 ms.
Opening mt file:  /CASNFSHOME2/home/sstatthoudakis/Documents/spectre/Gates/NOR2/nor_validate/corners/corner_pin1/gate_load/nor_tt.mt9
Total time required for tran analysis `transient10': CPU = 529.692 ms, elapsed = 1.06157 s, util. = 49.9%.
Time accumulated: CPU = 6.05576 s, elapsed = 10.2937 s.
Peak resident memory used = 167 Mbytes.


**************************
Alter Group `altergroup10'
**************************
Time for altergroup10: CPU = 21.096 ms, elapsed = 21.4059 ms.
Time accumulated: CPU = 6.07699 s, elapsed = 10.3163 s.
Peak resident memory used = 167 Mbytes.


******************************************************
Transient Analysis `transient11': time = (0 s -> 2 ns)
******************************************************
DC simulation time: CPU = 16.795 ms, elapsed = 16.798 ms.

Notice from spectre during transient analysis `transient11'.
    No outputs were found. Loosening output filter criterion to `allpub'.


Opening the PSFXL file ./nor_tt.raw/transient11.tran.tran ...
Important parameter values:
    start = 0 s
    outputstart = 0 s
    stop = 2 ns
    step = 100 fs
    maxstep = 40 ps
    ic = all
    useprevic = no
    skipdc = no
    reltol = 1e-03
    abstol(V) = 1 uV
    abstol(I) = 1 pA
    temp = 50 C
    tnom = 27 C
    tempeffects = all
    errpreset = moderate
    method = traponly
    lteratio = 3.5
    relref = sigglobal
    cmin = 0 F
    gmin = 1 pS


Output and IC/nodeset summary:
                 probe  2       
                 save   3       (current)
                 save   563     (voltage)

......9......8......7......6......5......4......3......2......1......0
Number of accepted tran steps =             175

Maximum value achieved for any signal of each quantity: 
V: V(nor10_fanout4.nor13.1:Q) = 1.035 V
I: I(VVDD:p) = 152.2 uA
If your circuit contains signals of the same quantity that are vastly different in size (such as high voltage circuitry combined with low voltage control circuitry), you should consider specifying global option `bin_relref=yes'.

~~~~~~~~~~~~~~~~~~~~~~~~~~~~~~~~~
Post-Transient Simulation Summary
~~~~~~~~~~~~~~~~~~~~~~~~~~~~~~~~~
   -   To further speed up simulation, consider
          add ++aps on command line
~~~~~~~~~~~~~~~~~~~~~~~~~~~~~~~~~


During simulation, the CPU load for active processors is :
         0 (19.2 %)      1 (10.8 %)      2 (84.0 %)      3 (8.1 %)
         4 (16.2 %)      5 (26.8 %)      6 (3.0 %)       7 (100.0 %)
         8 (10.9 %)      9 (1.4 %)      10 (3.4 %)      11 (5.6 %)
        Total: 289.4%
Initial condition solution time: CPU = 16.889 ms, elapsed = 17.539 ms.
Intrinsic tran analysis time:    CPU = 446 ms, elapsed = 505.725 ms.
Opening mt file:  /CASNFSHOME2/home/sstatthoudakis/Documents/spectre/Gates/NOR2/nor_validate/corners/corner_pin1/gate_load/nor_tt.mt10
Total time required for tran analysis `transient11': CPU = 470.516 ms, elapsed = 571.79 ms, util. = 82.3%.
Time accumulated: CPU = 6.56072 s, elapsed = 10.9623 s.
Peak resident memory used = 167 Mbytes.


**************************
Alter Group `altergroup11'
**************************
Time for altergroup11: CPU = 17.98 ms, elapsed = 18.3411 ms.
Time accumulated: CPU = 6.57882 s, elapsed = 10.9818 s.
Peak resident memory used = 167 Mbytes.


******************************************************
Transient Analysis `transient12': time = (0 s -> 2 ns)
******************************************************
DC simulation time: CPU = 17.855 ms, elapsed = 17.858 ms.

Notice from spectre during transient analysis `transient12'.
    No outputs were found. Loosening output filter criterion to `allpub'.


Opening the PSFXL file ./nor_tt.raw/transient12.tran.tran ...
Important parameter values:
    start = 0 s
    outputstart = 0 s
    stop = 2 ns
    step = 100 fs
    maxstep = 40 ps
    ic = all
    useprevic = no
    skipdc = no
    reltol = 1e-03
    abstol(V) = 1 uV
    abstol(I) = 1 pA
    temp = 125 C
    tnom = 27 C
    tempeffects = all
    errpreset = moderate
    method = traponly
    lteratio = 3.5
    relref = sigglobal
    cmin = 0 F
    gmin = 1 pS


Output and IC/nodeset summary:
                 probe  2       
                 save   3       (current)
                 save   563     (voltage)

......9......8......7......6......5......4......3......2......1......0
Number of accepted tran steps =             174

Maximum value achieved for any signal of each quantity: 
V: V(nor1_fanout4.nor13.2:Q) = 1.029 V
I: I(VVDD:p) = 134.5 uA
If your circuit contains signals of the same quantity that are vastly different in size (such as high voltage circuitry combined with low voltage control circuitry), you should consider specifying global option `bin_relref=yes'.

~~~~~~~~~~~~~~~~~~~~~~~~~~~~~~~~~
Post-Transient Simulation Summary
~~~~~~~~~~~~~~~~~~~~~~~~~~~~~~~~~
   -   To further speed up simulation, consider
          add ++aps on command line
~~~~~~~~~~~~~~~~~~~~~~~~~~~~~~~~~


During simulation, the CPU load for active processors is :
         0 (18.2 %)      1 (10.2 %)      2 (83.6 %)      3 (7.9 %)
         4 (21.0 %)      5 (25.7 %)      6 (3.1 %)       7 (100.0 %)
         8 (10.3 %)      9 (1.4 %)      10 (3.5 %)      11 (5.2 %)
        Total: 290.0%
Initial condition solution time: CPU = 17.97 ms, elapsed = 18.6501 ms.
Intrinsic tran analysis time:    CPU = 439.124 ms, elapsed = 502.638 ms.
Opening mt file:  /CASNFSHOME2/home/sstatthoudakis/Documents/spectre/Gates/NOR2/nor_validate/corners/corner_pin1/gate_load/nor_tt.mt11
Total time required for tran analysis `transient12': CPU = 464.711 ms, elapsed = 571.591 ms, util. = 81.3%.
Time accumulated: CPU = 7.05665 s, elapsed = 11.6262 s.
Peak resident memory used = 167 Mbytes.


**************************
Alter Group `altergroup12'
**************************
Time for altergroup12: CPU = 20.199 ms, elapsed = 20.6242 ms.
Time accumulated: CPU = 7.07697 s, elapsed = 11.6479 s.
Peak resident memory used = 167 Mbytes.


******************************************************
Transient Analysis `transient13': time = (0 s -> 2 ns)
******************************************************
DC simulation time: CPU = 18.592 ms, elapsed = 18.595 ms.

Notice from spectre during transient analysis `transient13'.
    No outputs were found. Loosening output filter criterion to `allpub'.


Opening the PSFXL file ./nor_tt.raw/transient13.tran.tran ...
Important parameter values:
    start = 0 s
    outputstart = 0 s
    stop = 2 ns
    step = 100 fs
    maxstep = 40 ps
    ic = all
    useprevic = no
    skipdc = no
    reltol = 1e-03
    abstol(V) = 1 uV
    abstol(I) = 1 pA
    temp = 0 C
    tnom = 27 C
    tempeffects = all
    errpreset = moderate
    method = traponly
    lteratio = 3.5
    relref = sigglobal
    cmin = 0 F
    gmin = 1 pS


Output and IC/nodeset summary:
                 probe  2       
                 save   3       (current)
                 save   563     (voltage)

......9......8......7......6......5......4......3......2......1......0
Number of accepted tran steps =             184

Maximum value achieved for any signal of each quantity: 
V: V(nor10_fanout4.nor13.1:Q) = 1.052 V
I: I(VVDD:p) = 155.4 uA
If your circuit contains signals of the same quantity that are vastly different in size (such as high voltage circuitry combined with low voltage control circuitry), you should consider specifying global option `bin_relref=yes'.

~~~~~~~~~~~~~~~~~~~~~~~~~~~~~~~~~
Post-Transient Simulation Summary
~~~~~~~~~~~~~~~~~~~~~~~~~~~~~~~~~
   -   To further speed up simulation, consider
          add ++aps on command line
~~~~~~~~~~~~~~~~~~~~~~~~~~~~~~~~~


During simulation, the CPU load for active processors is :
         0 (17.3 %)      1 (9.7 %)       2 (83.2 %)      3 (8.6 %)
         4 (24.4 %)      5 (24.2 %)      6 (3.0 %)       7 (100.0 %)
         8 (9.7 %)       9 (1.4 %)      10 (3.4 %)      11 (4.9 %)
        Total: 289.9%
Initial condition solution time: CPU = 18.696 ms, elapsed = 19.372 ms.
Intrinsic tran analysis time:    CPU = 484.195 ms, elapsed = 539.499 ms.
Opening mt file:  /CASNFSHOME2/home/sstatthoudakis/Documents/spectre/Gates/NOR2/nor_validate/corners/corner_pin1/gate_load/nor_tt.mt12
Total time required for tran analysis `transient13': CPU = 510.844 ms, elapsed = 614.617 ms, util. = 83.1%.
Time accumulated: CPU = 7.61417 s, elapsed = 12.351 s.
Peak resident memory used = 167 Mbytes.


**************************
Alter Group `altergroup13'
**************************
Time for altergroup13: CPU = 18.03 ms, elapsed = 18.338 ms.
Time accumulated: CPU = 7.63231 s, elapsed = 12.3706 s.
Peak resident memory used = 167 Mbytes.


******************************************************
Transient Analysis `transient14': time = (0 s -> 2 ns)
******************************************************
DC simulation time: CPU = 17.006 ms, elapsed = 17.01 ms.

Notice from spectre during transient analysis `transient14'.
    No outputs were found. Loosening output filter criterion to `allpub'.


Opening the PSFXL file ./nor_tt.raw/transient14.tran.tran ...
Important parameter values:
    start = 0 s
    outputstart = 0 s
    stop = 2 ns
    step = 100 fs
    maxstep = 40 ps
    ic = all
    useprevic = no
    skipdc = no
    reltol = 1e-03
    abstol(V) = 1 uV
    abstol(I) = 1 pA
    temp = 50 C
    tnom = 27 C
    tempeffects = all
    errpreset = moderate
    method = traponly
    lteratio = 3.5
    relref = sigglobal
    cmin = 0 F
    gmin = 1 pS


Output and IC/nodeset summary:
                 probe  2       
                 save   3       (current)
                 save   563     (voltage)

......9......8......7......6......5......4......3......2......1......0
Number of accepted tran steps =             181

Maximum value achieved for any signal of each quantity: 
V: V(nor10_fanout4.nor12.1:Q) = 1.045 V
I: I(VVDD:p) = 149.2 uA
If your circuit contains signals of the same quantity that are vastly different in size (such as high voltage circuitry combined with low voltage control circuitry), you should consider specifying global option `bin_relref=yes'.

~~~~~~~~~~~~~~~~~~~~~~~~~~~~~~~~~
Post-Transient Simulation Summary
~~~~~~~~~~~~~~~~~~~~~~~~~~~~~~~~~
   -   To further speed up simulation, consider
          add ++aps on command line
~~~~~~~~~~~~~~~~~~~~~~~~~~~~~~~~~


During simulation, the CPU load for active processors is :
         0 (17.1 %)      1 (9.4 %)       2 (82.8 %)      3 (13.1 %)
         4 (23.2 %)      5 (23.2 %)      6 (3.1 %)       7 (100.0 %)
         8 (9.3 %)       9 (1.7 %)      10 (3.3 %)      11 (4.7 %)
        Total: 290.9%
Initial condition solution time: CPU = 17.105 ms, elapsed = 17.9331 ms.
Intrinsic tran analysis time:    CPU = 480.324 ms, elapsed = 543.061 ms.
Opening mt file:  /CASNFSHOME2/home/sstatthoudakis/Documents/spectre/Gates/NOR2/nor_validate/corners/corner_pin1/gate_load/nor_tt.mt13
Total time required for tran analysis `transient14': CPU = 507.867 ms, elapsed = 611.282 ms, util. = 83.1%.
Time accumulated: CPU = 8.15553 s, elapsed = 13.0569 s.
Peak resident memory used = 167 Mbytes.


**************************
Alter Group `altergroup14'
**************************
Time for altergroup14: CPU = 17.826 ms, elapsed = 18.1291 ms.
Time accumulated: CPU = 8.17346 s, elapsed = 13.0761 s.
Peak resident memory used = 167 Mbytes.


******************************************************
Transient Analysis `transient15': time = (0 s -> 2 ns)
******************************************************
DC simulation time: CPU = 16.67 ms, elapsed = 16.6731 ms.

Notice from spectre during transient analysis `transient15'.
    No outputs were found. Loosening output filter criterion to `allpub'.


Opening the PSFXL file ./nor_tt.raw/transient15.tran.tran ...
Important parameter values:
    start = 0 s
    outputstart = 0 s
    stop = 2 ns
    step = 100 fs
    maxstep = 40 ps
    ic = all
    useprevic = no
    skipdc = no
    reltol = 1e-03
    abstol(V) = 1 uV
    abstol(I) = 1 pA
    temp = 125 C
    tnom = 27 C
    tempeffects = all
    errpreset = moderate
    method = traponly
    lteratio = 3.5
    relref = sigglobal
    cmin = 0 F
    gmin = 1 pS


Output and IC/nodeset summary:
                 probe  2       
                 save   3       (current)
                 save   563     (voltage)

......9......8......7......6......5......4......3......2......1......0
Number of accepted tran steps =             173

Maximum value achieved for any signal of each quantity: 
V: V(nor1_fanout4.nor12.2:Q) = 1.039 V
I: I(VVDD:p) = 120.2 uA
If your circuit contains signals of the same quantity that are vastly different in size (such as high voltage circuitry combined with low voltage control circuitry), you should consider specifying global option `bin_relref=yes'.

~~~~~~~~~~~~~~~~~~~~~~~~~~~~~~~~~
Post-Transient Simulation Summary
~~~~~~~~~~~~~~~~~~~~~~~~~~~~~~~~~
   -   To further speed up simulation, consider
          add ++aps on command line
~~~~~~~~~~~~~~~~~~~~~~~~~~~~~~~~~


During simulation, the CPU load for active processors is :
         0 (21.1 %)      1 (9.0 %)       2 (82.5 %)      3 (12.5 %)
         4 (22.0 %)      5 (22.1 %)      6 (3.3 %)       7 (100.0 %)
         8 (9.1 %)       9 (1.6 %)      10 (3.2 %)      11 (4.4 %)
        Total: 290.9%
Initial condition solution time: CPU = 16.757 ms, elapsed = 17.4758 ms.
Intrinsic tran analysis time:    CPU = 439.523 ms, elapsed = 501.24 ms.
Opening mt file:  /CASNFSHOME2/home/sstatthoudakis/Documents/spectre/Gates/NOR2/nor_validate/corners/corner_pin1/gate_load/nor_tt.mt14
Total time required for tran analysis `transient15': CPU = 463.443 ms, elapsed = 569.709 ms, util. = 81.3%.
Time accumulated: CPU = 8.64897 s, elapsed = 13.7165 s.
Peak resident memory used = 167 Mbytes.


**************************
Alter Group `altergroup15'
**************************
Time for altergroup15: CPU = 21.842 ms, elapsed = 22.135 ms.
Time accumulated: CPU = 8.67094 s, elapsed = 13.7397 s.
Peak resident memory used = 167 Mbytes.


******************************************************
Transient Analysis `transient16': time = (0 s -> 2 ns)
******************************************************
DC simulation time: CPU = 20.213 ms, elapsed = 20.2169 ms.

Notice from spectre during transient analysis `transient16'.
    No outputs were found. Loosening output filter criterion to `allpub'.


Opening the PSFXL file ./nor_tt.raw/transient16.tran.tran ...
Important parameter values:
    start = 0 s
    outputstart = 0 s
    stop = 2 ns
    step = 100 fs
    maxstep = 40 ps
    ic = all
    useprevic = no
    skipdc = no
    reltol = 1e-03
    abstol(V) = 1 uV
    abstol(I) = 1 pA
    temp = 0 C
    tnom = 27 C
    tempeffects = all
    errpreset = moderate
    method = traponly
    lteratio = 3.5
    relref = sigglobal
    cmin = 0 F
    gmin = 1 pS


Output and IC/nodeset summary:
                 probe  2       
                 save   3       (current)
                 save   563     (voltage)

......9......8......7......6......5......4......3......2......1......0
Number of accepted tran steps =             188

Maximum value achieved for any signal of each quantity: 
V: V(nor10_fanout4.nor13.1:Q) = 1.062 V
I: I(VVDD:p) = 140.7 uA
If your circuit contains signals of the same quantity that are vastly different in size (such as high voltage circuitry combined with low voltage control circuitry), you should consider specifying global option `bin_relref=yes'.

~~~~~~~~~~~~~~~~~~~~~~~~~~~~~~~~~
Post-Transient Simulation Summary
~~~~~~~~~~~~~~~~~~~~~~~~~~~~~~~~~
   -   To further speed up simulation, consider
          add ++aps on command line
~~~~~~~~~~~~~~~~~~~~~~~~~~~~~~~~~


During simulation, the CPU load for active processors is :
         0 (25.0 %)      1 (8.6 %)       2 (82.4 %)      3 (11.9 %)
         4 (21.0 %)      5 (21.0 %)      6 (3.2 %)       7 (100.0 %)
         8 (8.8 %)       9 (1.5 %)      10 (3.0 %)      11 (4.2 %)
        Total: 290.7%
Initial condition solution time: CPU = 20.338 ms, elapsed = 21.009 ms.
Intrinsic tran analysis time:    CPU = 493.738 ms, elapsed = 546.729 ms.
Opening mt file:  /CASNFSHOME2/home/sstatthoudakis/Documents/spectre/Gates/NOR2/nor_validate/corners/corner_pin1/gate_load/nor_tt.mt15
Total time required for tran analysis `transient16': CPU = 522.208 ms, elapsed = 588.853 ms, util. = 88.7%.
Time accumulated: CPU = 9.21034 s, elapsed = 14.4066 s.
Peak resident memory used = 167 Mbytes.


**************************
Alter Group `altergroup16'
**************************
Time for altergroup16: CPU = 25.423 ms, elapsed = 25.934 ms.
Time accumulated: CPU = 9.23613 s, elapsed = 14.4343 s.
Peak resident memory used = 167 Mbytes.


******************************************************
Transient Analysis `transient17': time = (0 s -> 2 ns)
******************************************************
DC simulation time: CPU = 17.184 ms, elapsed = 17.1881 ms.

Notice from spectre during transient analysis `transient17'.
    No outputs were found. Loosening output filter criterion to `allpub'.


Opening the PSFXL file ./nor_tt.raw/transient17.tran.tran ...
Important parameter values:
    start = 0 s
    outputstart = 0 s
    stop = 2 ns
    step = 100 fs
    maxstep = 40 ps
    ic = all
    useprevic = no
    skipdc = no
    reltol = 1e-03
    abstol(V) = 1 uV
    abstol(I) = 1 pA
    temp = 50 C
    tnom = 27 C
    tempeffects = all
    errpreset = moderate
    method = traponly
    lteratio = 3.5
    relref = sigglobal
    cmin = 0 F
    gmin = 1 pS


Output and IC/nodeset summary:
                 probe  2       
                 save   3       (current)
                 save   563     (voltage)

......9......8......7......6......5......4......3......2......1......0
Number of accepted tran steps =             182

Maximum value achieved for any signal of each quantity: 
V: V(nor10_fanout4.nor13.1:Q) = 1.055 V
I: I(VVDD:p) = 133.5 uA
If your circuit contains signals of the same quantity that are vastly different in size (such as high voltage circuitry combined with low voltage control circuitry), you should consider specifying global option `bin_relref=yes'.

~~~~~~~~~~~~~~~~~~~~~~~~~~~~~~~~~
Post-Transient Simulation Summary
~~~~~~~~~~~~~~~~~~~~~~~~~~~~~~~~~
   -   To further speed up simulation, consider
          add ++aps on command line
~~~~~~~~~~~~~~~~~~~~~~~~~~~~~~~~~


During simulation, the CPU load for active processors is :
         0 (28.6 %)      1 (8.2 %)       2 (82.3 %)      3 (11.4 %)
         4 (20.3 %)      5 (20.1 %)      6 (3.2 %)       7 (100.0 %)
         8 (8.5 %)       9 (1.5 %)      10 (2.9 %)      11 (4.1 %)
        Total: 291.2%
Initial condition solution time: CPU = 17.29 ms, elapsed = 17.8299 ms.
Intrinsic tran analysis time:    CPU = 495.881 ms, elapsed = 572.909 ms.
Opening mt file:  /CASNFSHOME2/home/sstatthoudakis/Documents/spectre/Gates/NOR2/nor_validate/corners/corner_pin1/gate_load/nor_tt.mt16
Total time required for tran analysis `transient17': CPU = 522.726 ms, elapsed = 641.702 ms, util. = 81.5%.
Time accumulated: CPU = 9.77653 s, elapsed = 15.1702 s.
Peak resident memory used = 167 Mbytes.


**************************
Alter Group `altergroup17'
**************************
Time for altergroup17: CPU = 18.672 ms, elapsed = 19.115 ms.
Time accumulated: CPU = 9.79538 s, elapsed = 15.1908 s.
Peak resident memory used = 167 Mbytes.


******************************************************
Transient Analysis `transient18': time = (0 s -> 2 ns)
******************************************************
DC simulation time: CPU = 17.125 ms, elapsed = 17.127 ms.

Notice from spectre during transient analysis `transient18'.
    No outputs were found. Loosening output filter criterion to `allpub'.


Opening the PSFXL file ./nor_tt.raw/transient18.tran.tran ...
Important parameter values:
    start = 0 s
    outputstart = 0 s
    stop = 2 ns
    step = 100 fs
    maxstep = 40 ps
    ic = all
    useprevic = no
    skipdc = no
    reltol = 1e-03
    abstol(V) = 1 uV
    abstol(I) = 1 pA
    temp = 125 C
    tnom = 27 C
    tempeffects = all
    errpreset = moderate
    method = traponly
    lteratio = 3.5
    relref = sigglobal
    cmin = 0 F
    gmin = 1 pS


Output and IC/nodeset summary:
                 probe  2       
                 save   3       (current)
                 save   563     (voltage)

......9......8......7......6......5......4......3......2......1......0
Number of accepted tran steps =             178

Maximum value achieved for any signal of each quantity: 
V: V(nor1_fanout4.nor12.2:Q) = 1.049 V
I: I(VVDD:p) = 122.2 uA
If your circuit contains signals of the same quantity that are vastly different in size (such as high voltage circuitry combined with low voltage control circuitry), you should consider specifying global option `bin_relref=yes'.

~~~~~~~~~~~~~~~~~~~~~~~~~~~~~~~~~
Post-Transient Simulation Summary
~~~~~~~~~~~~~~~~~~~~~~~~~~~~~~~~~
   -   To further speed up simulation, consider
          add ++aps on command line
~~~~~~~~~~~~~~~~~~~~~~~~~~~~~~~~~


During simulation, the CPU load for active processors is :
         0 (32.1 %)      1 (7.8 %)       2 (81.9 %)      3 (10.9 %)
         4 (19.3 %)      5 (19.2 %)      6 (3.3 %)       7 (100.0 %)
         8 (8.7 %)       9 (1.5 %)      10 (2.7 %)      11 (3.9 %)
        Total: 291.3%
Initial condition solution time: CPU = 17.227 ms, elapsed = 17.9801 ms.
Intrinsic tran analysis time:    CPU = 490.196 ms, elapsed = 571.798 ms.
Opening mt file:  /CASNFSHOME2/home/sstatthoudakis/Documents/spectre/Gates/NOR2/nor_validate/corners/corner_pin1/gate_load/nor_tt.mt17
Total time required for tran analysis `transient18': CPU = 514.957 ms, elapsed = 640.568 ms, util. = 80.4%.
Time accumulated: CPU = 10.3242 s, elapsed = 15.9261 s.
Peak resident memory used = 167 Mbytes.


**************************
Alter Group `altergroup18'
**************************
Time for altergroup18: CPU = 19.36 ms, elapsed = 19.7752 ms.
Time accumulated: CPU = 10.3437 s, elapsed = 15.9471 s.
Peak resident memory used = 167 Mbytes.


******************************************************
Transient Analysis `transient19': time = (0 s -> 2 ns)
******************************************************
DC simulation time: CPU = 17.426 ms, elapsed = 17.4289 ms.

Notice from spectre during transient analysis `transient19'.
    No outputs were found. Loosening output filter criterion to `allpub'.


Opening the PSFXL file ./nor_tt.raw/transient19.tran.tran ...
Important parameter values:
    start = 0 s
    outputstart = 0 s
    stop = 2 ns
    step = 100 fs
    maxstep = 40 ps
    ic = all
    useprevic = no
    skipdc = no
    reltol = 1e-03
    abstol(V) = 1 uV
    abstol(I) = 1 pA
    temp = 0 C
    tnom = 27 C
    tempeffects = all
    errpreset = moderate
    method = traponly
    lteratio = 3.5
    relref = sigglobal
    cmin = 0 F
    gmin = 1 pS


Output and IC/nodeset summary:
                 probe  2       
                 save   3       (current)
                 save   563     (voltage)

......9......8......7......6......5......4......3......2......1......0
Number of accepted tran steps =             190

Maximum value achieved for any signal of each quantity: 
V: V(nor10_fanout4.nor13.2:Q) = 1.071 V
I: I(VVDD:p) = 118 uA
If your circuit contains signals of the same quantity that are vastly different in size (such as high voltage circuitry combined with low voltage control circuitry), you should consider specifying global option `bin_relref=yes'.

~~~~~~~~~~~~~~~~~~~~~~~~~~~~~~~~~
Post-Transient Simulation Summary
~~~~~~~~~~~~~~~~~~~~~~~~~~~~~~~~~
   -   To further speed up simulation, consider
          add ++aps on command line
~~~~~~~~~~~~~~~~~~~~~~~~~~~~~~~~~


During simulation, the CPU load for active processors is :
         0 (35.3 %)      1 (7.5 %)       2 (78.7 %)      3 (13.8 %)
         4 (18.5 %)      5 (18.3 %)      6 (3.2 %)       7 (100.0 %)
         8 (8.3 %)       9 (1.5 %)      10 (2.7 %)      11 (3.8 %)
        Total: 291.6%
Initial condition solution time: CPU = 17.533 ms, elapsed = 18.1699 ms.
Intrinsic tran analysis time:    CPU = 533.784 ms, elapsed = 603.879 ms.
Opening mt file:  /CASNFSHOME2/home/sstatthoudakis/Documents/spectre/Gates/NOR2/nor_validate/corners/corner_pin1/gate_load/nor_tt.mt18
Total time required for tran analysis `transient19': CPU = 558.831 ms, elapsed = 671.496 ms, util. = 83.2%.
Time accumulated: CPU = 10.9215 s, elapsed = 16.7058 s.
Peak resident memory used = 167 Mbytes.


**************************
Alter Group `altergroup19'
**************************
Time for altergroup19: CPU = 18.098 ms, elapsed = 18.4939 ms.
Time accumulated: CPU = 10.9397 s, elapsed = 16.7257 s.
Peak resident memory used = 167 Mbytes.


******************************************************
Transient Analysis `transient20': time = (0 s -> 2 ns)
******************************************************
DC simulation time: CPU = 16.398 ms, elapsed = 16.4011 ms.

Notice from spectre during transient analysis `transient20'.
    No outputs were found. Loosening output filter criterion to `allpub'.


Opening the PSFXL file ./nor_tt.raw/transient20.tran.tran ...
Important parameter values:
    start = 0 s
    outputstart = 0 s
    stop = 2 ns
    step = 100 fs
    maxstep = 40 ps
    ic = all
    useprevic = no
    skipdc = no
    reltol = 1e-03
    abstol(V) = 1 uV
    abstol(I) = 1 pA
    temp = 50 C
    tnom = 27 C
    tempeffects = all
    errpreset = moderate
    method = traponly
    lteratio = 3.5
    relref = sigglobal
    cmin = 0 F
    gmin = 1 pS


Output and IC/nodeset summary:
                 probe  2       
                 save   3       (current)
                 save   563     (voltage)

......9......8......7......6......5......4......3......2......1......0
Number of accepted tran steps =             180

Maximum value achieved for any signal of each quantity: 
V: V(nor10_fanout4.nor13.1:Q) = 1.066 V
I: I(VVDD:p) = 116 uA
If your circuit contains signals of the same quantity that are vastly different in size (such as high voltage circuitry combined with low voltage control circuitry), you should consider specifying global option `bin_relref=yes'.

~~~~~~~~~~~~~~~~~~~~~~~~~~~~~~~~~
Post-Transient Simulation Summary
~~~~~~~~~~~~~~~~~~~~~~~~~~~~~~~~~
   -   To further speed up simulation, consider
          add ++aps on command line
~~~~~~~~~~~~~~~~~~~~~~~~~~~~~~~~~


During simulation, the CPU load for active processors is :
         0 (37.8 %)      1 (7.3 %)       2 (75.6 %)      3 (16.3 %)
         4 (17.8 %)      5 (17.7 %)      6 (3.0 %)       7 (100.0 %)
         8 (8.0 %)       9 (1.6 %)      10 (2.6 %)      11 (3.6 %)
        Total: 291.4%
Initial condition solution time: CPU = 16.491 ms, elapsed = 17.117 ms.
Intrinsic tran analysis time:    CPU = 446.318 ms, elapsed = 506.429 ms.
Opening mt file:  /CASNFSHOME2/home/sstatthoudakis/Documents/spectre/Gates/NOR2/nor_validate/corners/corner_pin1/gate_load/nor_tt.mt19
Total time required for tran analysis `transient20': CPU = 472.783 ms, elapsed = 575.034 ms, util. = 82.2%.
Time accumulated: CPU = 11.4283 s, elapsed = 17.3743 s.
Peak resident memory used = 167 Mbytes.


**************************
Alter Group `altergroup20'
**************************
Time for altergroup20: CPU = 26.015 ms, elapsed = 26.3181 ms.
Time accumulated: CPU = 11.4546 s, elapsed = 17.402 s.
Peak resident memory used = 167 Mbytes.


******************************************************
Transient Analysis `transient21': time = (0 s -> 2 ns)
******************************************************
DC simulation time: CPU = 17.082 ms, elapsed = 17.086 ms.

Notice from spectre during transient analysis `transient21'.
    No outputs were found. Loosening output filter criterion to `allpub'.


Opening the PSFXL file ./nor_tt.raw/transient21.tran.tran ...
Important parameter values:
    start = 0 s
    outputstart = 0 s
    stop = 2 ns
    step = 100 fs
    maxstep = 40 ps
    ic = all
    useprevic = no
    skipdc = no
    reltol = 1e-03
    abstol(V) = 1 uV
    abstol(I) = 1 pA
    temp = 125 C
    tnom = 27 C
    tempeffects = all
    errpreset = moderate
    method = traponly
    lteratio = 3.5
    relref = sigglobal
    cmin = 0 F
    gmin = 1 pS


Output and IC/nodeset summary:
                 probe  2       
                 save   3       (current)
                 save   563     (voltage)

......9......8......7......6......5......4......3......2......1......0
Number of accepted tran steps =             177

Maximum value achieved for any signal of each quantity: 
V: V(nor1_fanout4.nor13.2:Q) = 1.06 V
I: I(VVDD:p) = 130.1 uA
If your circuit contains signals of the same quantity that are vastly different in size (such as high voltage circuitry combined with low voltage control circuitry), you should consider specifying global option `bin_relref=yes'.

~~~~~~~~~~~~~~~~~~~~~~~~~~~~~~~~~
Post-Transient Simulation Summary
~~~~~~~~~~~~~~~~~~~~~~~~~~~~~~~~~
   -   To further speed up simulation, consider
          add ++aps on command line
~~~~~~~~~~~~~~~~~~~~~~~~~~~~~~~~~


During simulation, the CPU load for active processors is :
         0 (40.2 %)      1 (7.0 %)       2 (72.9 %)      3 (18.5 %)
         4 (17.4 %)      5 (17.2 %)      6 (3.0 %)       7 (100.0 %)
         8 (8.0 %)       9 (1.7 %)      10 (2.5 %)      11 (3.5 %)
        Total: 292.0%
Initial condition solution time: CPU = 17.174 ms, elapsed = 17.761 ms.
Intrinsic tran analysis time:    CPU = 444.854 ms, elapsed = 502.082 ms.
Opening mt file:  /CASNFSHOME2/home/sstatthoudakis/Documents/spectre/Gates/NOR2/nor_validate/corners/corner_pin1/gate_load/nor_tt.mt20
Total time required for tran analysis `transient21': CPU = 472.294 ms, elapsed = 574.035 ms, util. = 82.3%.
Time accumulated: CPU = 11.9502 s, elapsed = 18.0617 s.
Peak resident memory used = 167 Mbytes.


**************************
Alter Group `altergroup21'
**************************
Time for altergroup21: CPU = 27.594 ms, elapsed = 27.9002 ms.
Time accumulated: CPU = 11.9781 s, elapsed = 18.091 s.
Peak resident memory used = 167 Mbytes.


******************************************************
Transient Analysis `transient22': time = (0 s -> 2 ns)
******************************************************
DC simulation time: CPU = 21.219 ms, elapsed = 21.2228 ms.

Notice from spectre during transient analysis `transient22'.
    No outputs were found. Loosening output filter criterion to `allpub'.


Opening the PSFXL file ./nor_tt.raw/transient22.tran.tran ...
Important parameter values:
    start = 0 s
    outputstart = 0 s
    stop = 2 ns
    step = 100 fs
    maxstep = 40 ps
    ic = all
    useprevic = no
    skipdc = no
    reltol = 1e-03
    abstol(V) = 1 uV
    abstol(I) = 1 pA
    temp = 0 C
    tnom = 27 C
    tempeffects = all
    errpreset = moderate
    method = traponly
    lteratio = 3.5
    relref = sigglobal
    cmin = 0 F
    gmin = 1 pS


Output and IC/nodeset summary:
                 probe  2       
                 save   3       (current)
                 save   563     (voltage)

......9......8......7......6......

Notice from spectre at time = 967.574 ps during transient analysis `transient22'.
    Found trapezoidal ringing on node nor2.1:A.

......9......8......7......6......5......4......3......2......1......0
Number of accepted tran steps =             195

Notice from spectre during transient analysis `transient22'.
    Trapezoidal ringing is detected during tran analysis.
        Please use method=trap for better results and performance.


Maximum value achieved for any signal of each quantity: 
V: V(nor10_fanout4.nor12.1:Q) = 1.081 V
I: I(VVDD:p) = 130.5 uA
If your circuit contains signals of the same quantity that are vastly different in size (such as high voltage circuitry combined with low voltage control circuitry), you should consider specifying global option `bin_relref=yes'.

~~~~~~~~~~~~~~~~~~~~~~~~~~~~~~~~~
Post-Transient Simulation Summary
~~~~~~~~~~~~~~~~~~~~~~~~~~~~~~~~~
   -   To further speed up simulation, consider
          add ++aps on command line
~~~~~~~~~~~~~~~~~~~~~~~~~~~~~~~~~


During simulation, the CPU load for active processors is :
         0 (42.8 %)      1 (6.8 %)       2 (72.9 %)      3 (17.9 %)
         4 (16.7 %)      5 (16.6 %)      6 (3.1 %)       7 (100.0 %)
         8 (7.9 %)       9 (1.8 %)      10 (2.5 %)      11 (3.4 %)
        Total: 292.4%
Initial condition solution time: CPU = 21.35 ms, elapsed = 22.0561 ms.
Intrinsic tran analysis time:    CPU = 549.417 ms, elapsed = 619.493 ms.
Opening mt file:  /CASNFSHOME2/home/sstatthoudakis/Documents/spectre/Gates/NOR2/nor_validate/corners/corner_pin1/gate_load/nor_tt.mt21
Total time required for tran analysis `transient22': CPU = 578.949 ms, elapsed = 697.427 ms, util. = 83%.
Time accumulated: CPU = 12.5693 s, elapsed = 18.8633 s.
Peak resident memory used = 167 Mbytes.


**************************
Alter Group `altergroup22'
**************************
Time for altergroup22: CPU = 17.974 ms, elapsed = 18.2848 ms.
Time accumulated: CPU = 12.5874 s, elapsed = 18.8828 s.
Peak resident memory used = 167 Mbytes.


******************************************************
Transient Analysis `transient23': time = (0 s -> 2 ns)
******************************************************
DC simulation time: CPU = 17.215 ms, elapsed = 17.2181 ms.

Notice from spectre during transient analysis `transient23'.
    No outputs were found. Loosening output filter criterion to `allpub'.


Opening the PSFXL file ./nor_tt.raw/transient23.tran.tran ...
Important parameter values:
    start = 0 s
    outputstart = 0 s
    stop = 2 ns
    step = 100 fs
    maxstep = 40 ps
    ic = all
    useprevic = no
    skipdc = no
    reltol = 1e-03
    abstol(V) = 1 uV
    abstol(I) = 1 pA
    temp = 50 C
    tnom = 27 C
    tempeffects = all
    errpreset = moderate
    method = traponly
    lteratio = 3.5
    relref = sigglobal
    cmin = 0 F
    gmin = 1 pS


Output and IC/nodeset summary:
                 probe  2       
                 save   3       (current)
                 save   563     (voltage)

......9......8......7......6......

Notice from spectre at time = 962.039 ps during transient analysis `transient23'.
    Found trapezoidal ringing on node nor2.1:A.
Notice from spectre at time = 965.037 ps during transient analysis `transient23'.
    Found trapezoidal ringing on node nor2.1:A.

......9......8......7......6......5......4......3......2......1......0
Number of accepted tran steps =             186

Notice from spectre during transient analysis `transient23'.
    Trapezoidal ringing is detected during tran analysis.
        Please use method=trap for better results and performance.


Maximum value achieved for any signal of each quantity: 
V: V(nor10_fanout4.nor13.1:Q) = 1.076 V
I: I(VVDD:p) = 129.2 uA
If your circuit contains signals of the same quantity that are vastly different in size (such as high voltage circuitry combined with low voltage control circuitry), you should consider specifying global option `bin_relref=yes'.

~~~~~~~~~~~~~~~~~~~~~~~~~~~~~~~~~
Post-Transient Simulation Summary
~~~~~~~~~~~~~~~~~~~~~~~~~~~~~~~~~
   -   To further speed up simulation, consider
          add ++aps on command line
~~~~~~~~~~~~~~~~~~~~~~~~~~~~~~~~~


During simulation, the CPU load for active processors is :
         0 (44.9 %)      1 (6.6 %)       2 (70.3 %)      3 (20.1 %)
         4 (16.1 %)      5 (16.4 %)      6 (3.0 %)       7 (100.0 %)
         8 (7.9 %)       9 (1.9 %)      10 (2.5 %)      11 (3.4 %)
        Total: 293.0%
Initial condition solution time: CPU = 17.311 ms, elapsed = 17.9029 ms.
Intrinsic tran analysis time:    CPU = 465.276 ms, elapsed = 548.612 ms.
Opening mt file:  /CASNFSHOME2/home/sstatthoudakis/Documents/spectre/Gates/NOR2/nor_validate/corners/corner_pin1/gate_load/nor_tt.mt22
Total time required for tran analysis `transient23': CPU = 489.763 ms, elapsed = 586.956 ms, util. = 83.4%.
Time accumulated: CPU = 13.0894 s, elapsed = 19.5487 s.
Peak resident memory used = 167 Mbytes.


**************************
Alter Group `altergroup23'
**************************
Time for altergroup23: CPU = 18.724 ms, elapsed = 19.0341 ms.
Time accumulated: CPU = 13.1083 s, elapsed = 19.569 s.
Peak resident memory used = 167 Mbytes.


******************************************************
Transient Analysis `transient24': time = (0 s -> 2 ns)
******************************************************
DC simulation time: CPU = 17.183 ms, elapsed = 17.185 ms.

Notice from spectre during transient analysis `transient24'.
    No outputs were found. Loosening output filter criterion to `allpub'.


Opening the PSFXL file ./nor_tt.raw/transient24.tran.tran ...
Important parameter values:
    start = 0 s
    outputstart = 0 s
    stop = 2 ns
    step = 100 fs
    maxstep = 40 ps
    ic = all
    useprevic = no
    skipdc = no
    reltol = 1e-03
    abstol(V) = 1 uV
    abstol(I) = 1 pA
    temp = 125 C
    tnom = 27 C
    tempeffects = all
    errpreset = moderate
    method = traponly
    lteratio = 3.5
    relref = sigglobal
    cmin = 0 F
    gmin = 1 pS


Output and IC/nodeset summary:
                 probe  2       
                 save   3       (current)
                 save   563     (voltage)

......9......8......7......6......5......4......3......2......1......0
Number of accepted tran steps =             181

Maximum value achieved for any signal of each quantity: 
V: V(nor1_fanout4.nor11.2:Q) = 1.07 V
I: I(VVDD:p) = 134.8 uA
If your circuit contains signals of the same quantity that are vastly different in size (such as high voltage circuitry combined with low voltage control circuitry), you should consider specifying global option `bin_relref=yes'.

~~~~~~~~~~~~~~~~~~~~~~~~~~~~~~~~~
Post-Transient Simulation Summary
~~~~~~~~~~~~~~~~~~~~~~~~~~~~~~~~~
   -   To further speed up simulation, consider
          add ++aps on command line
~~~~~~~~~~~~~~~~~~~~~~~~~~~~~~~~~


During simulation, the CPU load for active processors is :
         0 (46.7 %)      1 (6.4 %)       2 (68.1 %)      3 (21.9 %)
         4 (15.6 %)      5 (15.9 %)      6 (3.0 %)       7 (100.0 %)
         8 (7.7 %)       9 (2.0 %)      10 (2.4 %)      11 (3.3 %)
        Total: 293.0%
Initial condition solution time: CPU = 17.276 ms, elapsed = 17.9672 ms.
Intrinsic tran analysis time:    CPU = 447.443 ms, elapsed = 507.055 ms.
Opening mt file:  /CASNFSHOME2/home/sstatthoudakis/Documents/spectre/Gates/NOR2/nor_validate/corners/corner_pin1/gate_load/nor_tt.mt23
Total time required for tran analysis `transient24': CPU = 471.904 ms, elapsed = 577.928 ms, util. = 81.7%.
Time accumulated: CPU = 13.5917 s, elapsed = 20.2119 s.
Peak resident memory used = 167 Mbytes.


**************************
Alter Group `altergroup24'
**************************
Time for altergroup24: CPU = 18.449 ms, elapsed = 18.894 ms.
Time accumulated: CPU = 13.6102 s, elapsed = 20.2321 s.
Peak resident memory used = 167 Mbytes.


******************************************************
Transient Analysis `transient25': time = (0 s -> 2 ns)
******************************************************

Notice from spectre during IC analysis `timeSweep_cloned_24', during transient analysis `transient25'.
    Bad pivoting is found during DC analysis. Option dc_pivot_check=yes is recommended for possible improvement of convergence.

DC simulation time: CPU = 16.816 ms, elapsed = 17.5841 ms.

Notice from spectre during transient analysis `transient25'.
    No outputs were found. Loosening output filter criterion to `allpub'.


Opening the PSFXL file ./nor_tt.raw/transient25.tran.tran ...
Important parameter values:
    start = 0 s
    outputstart = 0 s
    stop = 2 ns
    step = 100 fs
    maxstep = 40 ps
    ic = all
    useprevic = no
    skipdc = no
    reltol = 1e-03
    abstol(V) = 1 uV
    abstol(I) = 1 pA
    temp = 0 C
    tnom = 27 C
    tempeffects = all
    errpreset = moderate
    method = traponly
    lteratio = 3.5
    relref = sigglobal
    cmin = 0 F
    gmin = 1 pS


Output and IC/nodeset summary:
                 probe  2       
                 save   3       (current)
                 save   563     (voltage)

......9......8......7......6......5......4......3......2......1......0
Number of accepted tran steps =             196

Maximum value achieved for any signal of each quantity: 
V: V(nor10_fanout4.nor13.1:Q) = 1.091 V
I: I(VVDD:p) = 136.1 uA
If your circuit contains signals of the same quantity that are vastly different in size (such as high voltage circuitry combined with low voltage control circuitry), you should consider specifying global option `bin_relref=yes'.

~~~~~~~~~~~~~~~~~~~~~~~~~~~~~~~~~
Post-Transient Simulation Summary
~~~~~~~~~~~~~~~~~~~~~~~~~~~~~~~~~
[...]


***************************
Alter Group `altergroup140'
***************************
Time for altergroup140: CPU = 20.86 ms, elapsed = 21.7731 ms.
Time accumulated: CPU = 90.1276 s (1m  30.1s), elapsed = 118.203 s (1m  58.2s).
Peak resident memory used = 177 Mbytes.


*******************************************************
Transient Analysis `transient141': time = (0 s -> 2 ns)
*******************************************************
DC simulation time: CPU = 23.287 ms, elapsed = 23.2921 ms.

Notice from spectre during transient analysis `transient141'.
    No outputs were found. Loosening output filter criterion to `allpub'.


Opening the PSFXL file ./nor_tt.raw/transient141.tran.tran ...
Important parameter values:
    start = 0 s
    outputstart = 0 s
    stop = 2 ns
    step = 100 fs
    maxstep = 40 ps
    ic = all
    useprevic = no
    skipdc = no
    reltol = 1e-03
    abstol(V) = 1 uV
    abstol(I) = 1 pA
    temp = 125 C
    tnom = 27 C
    tempeffects = all
    errpreset = moderate
    method = traponly
    lteratio = 3.5
    relref = sigglobal
    cmin = 0 F
    gmin = 1 pS


Output and IC/nodeset summary:
                 probe  2       
                 save   3       (current)
                 save   563     (voltage)

......9......8......7......6......5......4......3......2......1......0
Number of accepted tran steps =             242

Maximum value achieved for any signal of each quantity: 
V: V(nor10_fanout4.nor13.2:Q) = 1.473 V
I: I(VGND:p) = 210.8 uA
If your circuit contains signals of the same quantity that are vastly different in size (such as high voltage circuitry combined with low voltage control circuitry), you should consider specifying global option `bin_relref=yes'.

~~~~~~~~~~~~~~~~~~~~~~~~~~~~~~~~~
Post-Transient Simulation Summary
~~~~~~~~~~~~~~~~~~~~~~~~~~~~~~~~~
   -   To further speed up simulation, consider
          add ++aps on command line
~~~~~~~~~~~~~~~~~~~~~~~~~~~~~~~~~


During simulation, the CPU load for active processors is :
         0 (26.3 %)      1 (27.0 %)      2 (61.8 %)      3 (37.6 %)
         4 (8.7 %)       5 (23.3 %)      6 (6.8 %)       7 (100.0 %)
         8 (6.2 %)       9 (2.5 %)      10 (2.1 %)      11 (1.8 %)
        Total: 304.2%
Initial condition solution time: CPU = 23.394 ms, elapsed = 24.1089 ms.
Intrinsic tran analysis time:    CPU = 640.881 ms, elapsed = 708.601 ms.
Opening mt file:  /CASNFSHOME2/home/sstatthoudakis/Documents/spectre/Gates/NOR2/nor_validate/corners/corner_pin1/gate_load/nor_tt.mt140
Total time required for tran analysis `transient141': CPU = 672.039 ms, elapsed = 783.307 ms, util. = 85.8%.
Time accumulated: CPU = 90.813 s (1m  30.8s), elapsed = 119.069 s (1m  59.1s).
Peak resident memory used = 177 Mbytes.


***************************
Alter Group `altergroup141'
***************************
Time for altergroup141: CPU = 26.912 ms, elapsed = 27.503 ms.
Time accumulated: CPU = 90.8404 s (1m  30.8s), elapsed = 119.099 s (1m  59.1s).
Peak resident memory used = 177 Mbytes.


*******************************************************
Transient Analysis `transient142': time = (0 s -> 2 ns)
*******************************************************
DC simulation time: CPU = 23.524 ms, elapsed = 23.5269 ms.

Notice from spectre during transient analysis `transient142'.
    No outputs were found. Loosening output filter criterion to `allpub'.


Opening the PSFXL file ./nor_tt.raw/transient142.tran.tran ...
Important parameter values:
    start = 0 s
    outputstart = 0 s
    stop = 2 ns
    step = 100 fs
    maxstep = 40 ps
    ic = all
    useprevic = no
    skipdc = no
    reltol = 1e-03
    abstol(V) = 1 uV
    abstol(I) = 1 pA
    temp = 0 C
    tnom = 27 C
    tempeffects = all
    errpreset = moderate
    method = traponly
    lteratio = 3.5
    relref = sigglobal
    cmin = 0 F
    gmin = 1 pS


Output and IC/nodeset summary:
                 probe  2       
                 save   3       (current)
                 save   563     (voltage)

......9......8......7......6......5......4......3......2......1......0
Number of accepted tran steps =             263

Maximum value achieved for any signal of each quantity: 
V: V(nor10_fanout4.nor11.2:Q) = 1.491 V
I: I(VGND:p) = 237.8 uA
If your circuit contains signals of the same quantity that are vastly different in size (such as high voltage circuitry combined with low voltage control circuitry), you should consider specifying global option `bin_relref=yes'.

~~~~~~~~~~~~~~~~~~~~~~~~~~~~~~~~~
Post-Transient Simulation Summary
~~~~~~~~~~~~~~~~~~~~~~~~~~~~~~~~~
   -   To further speed up simulation, consider
          add ++aps on command line
~~~~~~~~~~~~~~~~~~~~~~~~~~~~~~~~~


During simulation, the CPU load for active processors is :
         0 (26.1 %)      1 (26.8 %)      2 (61.3 %)      3 (38.0 %)
         4 (8.7 %)       5 (23.1 %)      6 (7.6 %)       7 (100.0 %)
         8 (6.2 %)       9 (2.5 %)      10 (2.1 %)      11 (1.8 %)
        Total: 304.3%
Initial condition solution time: CPU = 23.605 ms, elapsed = 24.178 ms.
Intrinsic tran analysis time:    CPU = 757.092 ms, elapsed = 833.485 ms.
Opening mt file:  /CASNFSHOME2/home/sstatthoudakis/Documents/spectre/Gates/NOR2/nor_validate/corners/corner_pin1/gate_load/nor_tt.mt141
Total time required for tran analysis `transient142': CPU = 788.948 ms, elapsed = 912.381 ms, util. = 86.5%.
Time accumulated: CPU = 91.654 s (1m  31.7s), elapsed = 120.149 s (2m  0.1s).
Peak resident memory used = 177 Mbytes.


***************************
Alter Group `altergroup142'
***************************
Time for altergroup142: CPU = 19.614 ms, elapsed = 20.045 ms.
Time accumulated: CPU = 91.6739 s (1m  31.7s), elapsed = 120.172 s (2m  0.2s).
Peak resident memory used = 177 Mbytes.


*******************************************************
Transient Analysis `transient143': time = (0 s -> 2 ns)
*******************************************************
DC simulation time: CPU = 20.583 ms, elapsed = 20.5839 ms.

Notice from spectre during transient analysis `transient143'.
    No outputs were found. Loosening output filter criterion to `allpub'.


Opening the PSFXL file ./nor_tt.raw/transient143.tran.tran ...
Important parameter values:
    start = 0 s
    outputstart = 0 s
    stop = 2 ns
    step = 100 fs
    maxstep = 40 ps
    ic = all
    useprevic = no
    skipdc = no
    reltol = 1e-03
    abstol(V) = 1 uV
    abstol(I) = 1 pA
    temp = 50 C
    tnom = 27 C
    tempeffects = all
    errpreset = moderate
    method = traponly
    lteratio = 3.5
    relref = sigglobal
    cmin = 0 F
    gmin = 1 pS


Output and IC/nodeset summary:
                 probe  2       
                 save   3       (current)
                 save   563     (voltage)

......9......8......7......6......5......4......3......2......1......0
Number of accepted tran steps =             255

Maximum value achieved for any signal of each quantity: 
V: V(nor10_fanout4.nor11.2:Q) = 1.488 V
I: I(VGND:p) = 226.1 uA
If your circuit contains signals of the same quantity that are vastly different in size (such as high voltage circuitry combined with low voltage control circuitry), you should consider specifying global option `bin_relref=yes'.

~~~~~~~~~~~~~~~~~~~~~~~~~~~~~~~~~
Post-Transient Simulation Summary
~~~~~~~~~~~~~~~~~~~~~~~~~~~~~~~~~
   -   To further speed up simulation, consider
          add ++aps on command line
~~~~~~~~~~~~~~~~~~~~~~~~~~~~~~~~~


During simulation, the CPU load for active processors is :
         0 (26.2 %)      1 (26.7 %)      2 (60.8 %)      3 (38.3 %)
         4 (8.6 %)       5 (22.9 %)      6 (8.1 %)       7 (100.0 %)
         8 (6.2 %)       9 (2.6 %)      10 (2.1 %)      11 (1.8 %)
        Total: 304.2%
Initial condition solution time: CPU = 20.687 ms, elapsed = 21.4231 ms.
Intrinsic tran analysis time:    CPU = 654.748 ms, elapsed = 737.237 ms.
Opening mt file:  /CASNFSHOME2/home/sstatthoudakis/Documents/spectre/Gates/NOR2/nor_validate/corners/corner_pin1/gate_load/nor_tt.mt142
Total time required for tran analysis `transient143': CPU = 683.283 ms, elapsed = 815.16 ms, util. = 83.8%.
Time accumulated: CPU = 92.3721 s (1m  32.4s), elapsed = 121.095 s (2m  1.1s).
Peak resident memory used = 177 Mbytes.


***************************
Alter Group `altergroup143'
***************************
Time for altergroup143: CPU = 20.154 ms, elapsed = 20.879 ms.
Time accumulated: CPU = 92.3924 s (1m  32.4s), elapsed = 121.118 s (2m  1.1s).
Peak resident memory used = 177 Mbytes.


*******************************************************
Transient Analysis `transient144': time = (0 s -> 2 ns)
*******************************************************
DC simulation time: CPU = 21.874 ms, elapsed = 21.879 ms.

Notice from spectre during transient analysis `transient144'.
    No outputs were found. Loosening output filter criterion to `allpub'.


Opening the PSFXL file ./nor_tt.raw/transient144.tran.tran ...
Important parameter values:
    start = 0 s
    outputstart = 0 s
    stop = 2 ns
    step = 100 fs
    maxstep = 40 ps
    ic = all
    useprevic = no
    skipdc = no
    reltol = 1e-03
    abstol(V) = 1 uV
    abstol(I) = 1 pA
    temp = 125 C
    tnom = 27 C
    tempeffects = all
    errpreset = moderate
    method = traponly
    lteratio = 3.5
    relref = sigglobal
    cmin = 0 F
    gmin = 1 pS


Output and IC/nodeset summary:
                 probe  2       
                 save   3       (current)
                 save   563     (voltage)

......9......8......7......6......5......4......3......2......1......0
Number of accepted tran steps =             240

Maximum value achieved for any signal of each quantity: 
V: V(nor10_fanout4.nor12.2:Q) = 1.483 V
I: I(VGND:p) = 214.3 uA
If your circuit contains signals of the same quantity that are vastly different in size (such as high voltage circuitry combined with low voltage control circuitry), you should consider specifying global option `bin_relref=yes'.

~~~~~~~~~~~~~~~~~~~~~~~~~~~~~~~~~
Post-Transient Simulation Summary
~~~~~~~~~~~~~~~~~~~~~~~~~~~~~~~~~
   -   To further speed up simulation, consider
          add ++aps on command line
~~~~~~~~~~~~~~~~~~~~~~~~~~~~~~~~~


During simulation, the CPU load for active processors is :
         0 (26.7 %)      1 (26.5 %)      2 (60.4 %)      3 (38.6 %)
         4 (8.6 %)       5 (22.7 %)      6 (8.0 %)       7 (100.0 %)
         8 (6.3 %)       9 (2.6 %)      10 (2.1 %)      11 (1.8 %)
        Total: 304.2%
Initial condition solution time: CPU = 21.982 ms, elapsed = 22.723 ms.
Intrinsic tran analysis time:    CPU = 601.176 ms, elapsed = 668.412 ms.
Opening mt file:  /CASNFSHOME2/home/sstatthoudakis/Documents/spectre/Gates/NOR2/nor_validate/corners/corner_pin1/gate_load/nor_tt.mt143
Total time required for tran analysis `transient144': CPU = 631.029 ms, elapsed = 744.865 ms, util. = 84.7%.
Time accumulated: CPU = 93.0371 s (1m  33.0s), elapsed = 121.942 s (2m  1.9s).
Peak resident memory used = 177 Mbytes.


***************************
Alter Group `altergroup144'
***************************
Time for altergroup144: CPU = 22.398 ms, elapsed = 22.9011 ms.
Time accumulated: CPU = 93.0596 s (1m  33.1s), elapsed = 121.967 s (2m  2.0s).
Peak resident memory used = 177 Mbytes.


*******************************************************
Transient Analysis `transient145': time = (0 s -> 2 ns)
*******************************************************
DC simulation time: CPU = 20.161 ms, elapsed = 20.164 ms.

Notice from spectre during transient analysis `transient145'.
    No outputs were found. Loosening output filter criterion to `allpub'.


Opening the PSFXL file ./nor_tt.raw/transient145.tran.tran ...
Important parameter values:
    start = 0 s
    outputstart = 0 s
    stop = 2 ns
    step = 100 fs
    maxstep = 40 ps
    ic = all
    useprevic = no
    skipdc = no
    reltol = 1e-03
    abstol(V) = 1 uV
    abstol(I) = 1 pA
    temp = 0 C
    tnom = 27 C
    tempeffects = all
    errpreset = moderate
    method = traponly
    lteratio = 3.5
    relref = sigglobal
    cmin = 0 F
    gmin = 1 pS


Output and IC/nodeset summary:
                 probe  2       
                 save   3       (current)
                 save   563     (voltage)

......9......8......7......6......5......4......3......2......1......0
Number of accepted tran steps =             265

Maximum value achieved for any signal of each quantity: 
V: V(nor10_fanout4.nor13.2:Q) = 1.502 V
I: I(VGND:p) = 241 uA
If your circuit contains signals of the same quantity that are vastly different in size (such as high voltage circuitry combined with low voltage control circuitry), you should consider specifying global option `bin_relref=yes'.

~~~~~~~~~~~~~~~~~~~~~~~~~~~~~~~~~
Post-Transient Simulation Summary
~~~~~~~~~~~~~~~~~~~~~~~~~~~~~~~~~
   -   To further speed up simulation, consider
          add ++aps on command line
~~~~~~~~~~~~~~~~~~~~~~~~~~~~~~~~~


During simulation, the CPU load for active processors is :
         0 (27.3 %)      1 (26.2 %)      2 (59.9 %)      3 (38.9 %)
         4 (8.5 %)       5 (22.6 %)      6 (8.0 %)       7 (100.0 %)
         8 (6.2 %)       9 (2.5 %)      10 (2.2 %)      11 (1.8 %)
        Total: 304.2%
Initial condition solution time: CPU = 20.262 ms, elapsed = 20.854 ms.
Intrinsic tran analysis time:    CPU = 748.244 ms, elapsed = 811.681 ms.
Opening mt file:  /CASNFSHOME2/home/sstatthoudakis/Documents/spectre/Gates/NOR2/nor_validate/corners/corner_pin1/gate_load/nor_tt.mt144
Total time required for tran analysis `transient145': CPU = 778.466 ms, elapsed = 888.04 ms, util. = 87.7%.
Time accumulated: CPU = 93.8708 s (1m  33.9s), elapsed = 122.974 s (2m  3.0s).
Peak resident memory used = 177 Mbytes.


***************************
Alter Group `altergroup145'
***************************
Time for altergroup145: CPU = 19.917 ms, elapsed = 20.349 ms.
Time accumulated: CPU = 93.8908 s (1m  33.9s), elapsed = 122.996 s (2m  3.0s).
Peak resident memory used = 177 Mbytes.


*******************************************************
Transient Analysis `transient146': time = (0 s -> 2 ns)
*******************************************************
DC simulation time: CPU = 21.059 ms, elapsed = 21.0619 ms.

Notice from spectre during transient analysis `transient146'.
    No outputs were found. Loosening output filter criterion to `allpub'.


Opening the PSFXL file ./nor_tt.raw/transient146.tran.tran ...
Important parameter values:
    start = 0 s
    outputstart = 0 s
    stop = 2 ns
    step = 100 fs
    maxstep = 40 ps
    ic = all
    useprevic = no
    skipdc = no
    reltol = 1e-03
    abstol(V) = 1 uV
    abstol(I) = 1 pA
    temp = 50 C
    tnom = 27 C
    tempeffects = all
    errpreset = moderate
    method = traponly
    lteratio = 3.5
    relref = sigglobal
    cmin = 0 F
    gmin = 1 pS


Output and IC/nodeset summary:
                 probe  2       
                 save   3       (current)
                 save   563     (voltage)

......9......8......7......6......5......4......3......2......1......0
Number of accepted tran steps =             257

Maximum value achieved for any signal of each quantity: 
V: V(nor10_fanout4.nor11.2:Q) = 1.499 V
I: I(VGND:p) = 229.1 uA
If your circuit contains signals of the same quantity that are vastly different in size (such as high voltage circuitry combined with low voltage control circuitry), you should consider specifying global option `bin_relref=yes'.

~~~~~~~~~~~~~~~~~~~~~~~~~~~~~~~~~
Post-Transient Simulation Summary
~~~~~~~~~~~~~~~~~~~~~~~~~~~~~~~~~
   -   To further speed up simulation, consider
          add ++aps on command line
~~~~~~~~~~~~~~~~~~~~~~~~~~~~~~~~~


During simulation, the CPU load for active processors is :
         0 (27.9 %)      1 (26.1 %)      2 (59.5 %)      3 (39.3 %)
         4 (8.5 %)       5 (22.4 %)      6 (7.9 %)       7 (100.0 %)
         8 (6.2 %)       9 (2.5 %)      10 (2.2 %)      11 (1.8 %)
        Total: 304.2%
Initial condition solution time: CPU = 21.164 ms, elapsed = 21.7299 ms.
Intrinsic tran analysis time:    CPU = 688.661 ms, elapsed = 742.702 ms.
Opening mt file:  /CASNFSHOME2/home/sstatthoudakis/Documents/spectre/Gates/NOR2/nor_validate/corners/corner_pin1/gate_load/nor_tt.mt145
Total time required for tran analysis `transient146': CPU = 717.684 ms, elapsed = 817.111 ms, util. = 87.8%.
Time accumulated: CPU = 94.6235 s (1m  34.6s), elapsed = 123.904 s (2m  3.9s).
Peak resident memory used = 177 Mbytes.


***************************
Alter Group `altergroup146'
***************************
Time for altergroup146: CPU = 24.147 ms, elapsed = 24.5309 ms.
Time accumulated: CPU = 94.6478 s (1m  34.6s), elapsed = 123.93 s (2m  3.9s).
Peak resident memory used = 177 Mbytes.


*******************************************************
Transient Analysis `transient147': time = (0 s -> 2 ns)
*******************************************************

Notice from spectre during IC analysis `timeSweep_cloned_146', during transient analysis `transient147'.
    Bad pivoting is found during DC analysis. Option dc_pivot_check=yes is recommended for possible improvement of convergence.

DC simulation time: CPU = 22.734 ms, elapsed = 23.989 ms.

Notice from spectre during transient analysis `transient147'.
    No outputs were found. Loosening output filter criterion to `allpub'.


Opening the PSFXL file ./nor_tt.raw/transient147.tran.tran ...
Important parameter values:
    start = 0 s
    outputstart = 0 s
    stop = 2 ns
    step = 100 fs
    maxstep = 40 ps
    ic = all
    useprevic = no
    skipdc = no
    reltol = 1e-03
    abstol(V) = 1 uV
    abstol(I) = 1 pA
    temp = 125 C
    tnom = 27 C
    tempeffects = all
    errpreset = moderate
    method = traponly
    lteratio = 3.5
    relref = sigglobal
    cmin = 0 F
    gmin = 1 pS


Output and IC/nodeset summary:
                 probe  2       
                 save   3       (current)
                 save   563     (voltage)

......9......8......7......6......5......4......3......2......1......0
Number of accepted tran steps =             244

Maximum value achieved for any signal of each quantity: 
V: V(nor10_fanout4.nor13.2:Q) = 1.493 V
I: I(VGND:p) = 216.7 uA
If your circuit contains signals of the same quantity that are vastly different in size (such as high voltage circuitry combined with low voltage control circuitry), you should consider specifying global option `bin_relref=yes'.

~~~~~~~~~~~~~~~~~~~~~~~~~~~~~~~~~
Post-Transient Simulation Summary
~~~~~~~~~~~~~~~~~~~~~~~~~~~~~~~~~
   -   To further speed up simulation, consider
          add ++aps on command line
~~~~~~~~~~~~~~~~~~~~~~~~~~~~~~~~~


During simulation, the CPU load for active processors is :
         0 (28.4 %)      1 (25.9 %)      2 (59.1 %)      3 (39.5 %)
         4 (8.4 %)       5 (22.2 %)      6 (7.9 %)       7 (100.0 %)
         8 (6.2 %)       9 (2.6 %)      10 (2.2 %)      11 (1.8 %)
        Total: 304.2%
Initial condition solution time: CPU = 22.819 ms, elapsed = 24.4601 ms.
Intrinsic tran analysis time:    CPU = 626.24 ms, elapsed = 747.069 ms.
Opening mt file:  /CASNFSHOME2/home/sstatthoudakis/Documents/spectre/Gates/NOR2/nor_validate/corners/corner_pin1/gate_load/nor_tt.mt146
Total time required for tran analysis `transient147': CPU = 656.727 ms, elapsed = 792.555 ms, util. = 82.9%.
Time accumulated: CPU = 95.318 s (1m  35.3s), elapsed = 124.806 s (2m  4.8s).
Peak resident memory used = 177 Mbytes.

Licensing Information:
Lic Summary:
[14:35:41.223889] Cdslmd servers:5280@10.64.82.10
[14:35:41.223954] Feature usage summary:
[14:35:41.223955] Virtuoso_Multi_mode_Simulation


Aggregate audit (2:35:41 PM, Wed Oct 29, 2025):
Time used: CPU = 95.4 s (1m  35.4s), elapsed = 125 s (2m  5.0s), util. = 76.3%.
Time spent in licensing: elapsed = 152 ms.
Peak memory used = 177 Mbytes.
Simulation started at: 2:33:36 PM, Wed Oct 29, 2025, ended at: 2:35:41 PM, Wed Oct 29, 2025, with elapsed time (wall clock): 125 s (2m  5.0s).
spectre completes with 0 errors, 12 warnings, and 235 notices.
