
Spectre (R) Circuit Simulator
Version 23.1.0.242.isr1 64bit -- 7 Sep 2023
Copyright (C) 1989-2023 Cadence Design Systems, Inc. All rights reserved
        worldwide. Cadence and Spectre are registered trademarks of Cadence
        Design Systems, Inc. All others are the property of their respective
        holders.

Includes RSA BSAFE(R) Cryptographic or Security Protocol Software from RSA
        Security, Inc.

User: sstatthoudakis   Host: torreyridge   HostID: 7F0100   PID: 17964
Memory  available: 92.0435 GB  physical: 135.0278 GB
Linux   : CentOS Linux release 7 (Core)
CPU Type: Intel(R) Xeon(R) Silver 4114 CPU @ 2.20GHz
All processors running at 2194.8 MHz
        Socket: Processors
        0:       0
        2:       1
        4:       2
        6:       3
        8:       4
        10:      5
        12:      6
        14:      7
        16:      8
        18:      9
        20:     10
        22:     11
        
System load averages (1min, 5min, 15min) : 58.2 %, 58.4 %, 47.3 %
This is a virtual machine


Simulating `nand_ff.scs' on torreyridge at 3:47:44 PM, Wed Oct 29, 2025
        (process id: 17964).
Current working directory:
        /CASNFSHOME2/home/sstatthoudakis/Documents/spectre/Gates/NAND2/corners/corner_pin1/gate_load
Command line:
     \
        /CASNFSHOME/home/edatools/cadence/2023-24/RHELx86/SPECTRE_23.10.242/tools.lnx86/bin/spectre
        \
        -64 nand_ff.scs
Licensing Information:
[15:47:44.231881] Configured Lic search path (22.01-s002): 5280@10.64.82.10

Licensing Information:
[15:47:44.301370] Periodic Lic check successful

Reading file: 
        /CASNFSHOME2/home/sstatthoudakis/Documents/spectre/Gates/NAND2/corners/corner_pin1/gate_load/nand_ff.scs
Reading file: 
        /CASNFSHOME/home/edatools/cadence/2023-24/RHELx86/SPECTRE_23.10.242/tools.lnx86/spectre/etc/configs/spectre.cfg
Reading file: 
        /CASNFSHOME/home/tsaikaterini/IHP/IHP_Generation_files/130ng/ihp013ng_include_all_fast.scs
Reading file: 
        /CASNFSHOME/home/tsaikaterini/IHP/IHP_Generation_files/130ng/SG13S_618_rev1.12.15/tech/SG13_HBT/VBIC/spectre/SG13_cornerBIP.scs
Reading file: 
        /CASNFSHOME/home/tsaikaterini/IHP/IHP_Generation_files/130ng/SG13S_618_rev1.12.15/tech/SG13_HBT/VBIC/spectre/SG13_hbt_mm.scs
Reading file: 
        /CASNFSHOME/home/tsaikaterini/IHP/IHP_Generation_files/130ng/SG13S_618_rev1.12.15/tech/SG13_HBT/VBIC/spectre/SG13_hbt.lib
Reading file: 
        /CASNFSHOME/home/tsaikaterini/IHP/IHP_Generation_files/130ng/SG13S_618_rev1.12.15/tech/SG13_HBT/VBIC/spectre/SG13_hbt_stat.scs
Reading file: 
        /CASNFSHOME/home/tsaikaterini/IHP/IHP_Generation_files/130ng/SG13S_618_rev1.12.15/tech/SG13_MOS/library/spectre/cornerMOSlv_psp.scs
Reading file: 
        /CASNFSHOME/home/tsaikaterini/IHP/IHP_Generation_files/130ng/SG13S_618_rev1.12.15/tech/SG13_MOS/library/spectre/sg13_moslv_psp_stat.scs
Reading file: 
        /CASNFSHOME/home/tsaikaterini/IHP/IHP_Generation_files/130ng/SG13S_618_rev1.12.15/tech/SG13_MOS/library/spectre/sg13_moslv_psp_mod.lib
Reading file: 
        /CASNFSHOME/home/tsaikaterini/IHP/IHP_Generation_files/130ng/SG13S_618_rev1.12.15/tech/SG13_MOS/library/spectre/sg13_moslv_psp_parm.scs
Reading file: 
        /CASNFSHOME/home/tsaikaterini/IHP/IHP_Generation_files/130ng/SG13S_618_rev1.12.15/tech/SG13_MOS/library/spectre/cornerMOShv_psp.scs
Reading file: 
        /CASNFSHOME/home/tsaikaterini/IHP/IHP_Generation_files/130ng/SG13S_618_rev1.12.15/tech/SG13_MOS/library/spectre/sg13_moshv_psp_stat.scs
Reading file: 
        /CASNFSHOME/home/tsaikaterini/IHP/IHP_Generation_files/130ng/SG13S_618_rev1.12.15/tech/SG13_MOS/library/spectre/sg13_moshv_psp_mod.lib
Reading file: 
        /CASNFSHOME/home/tsaikaterini/IHP/IHP_Generation_files/130ng/SG13S_618_rev1.12.15/tech/SG13_MOS/library/spectre/sg13_moshv_psp_parm.scs

Warning from spectre in `nmoselt', during circuit read-in.
    WARNING (SFE-2296):
        "/CASNFSHOME/home/tsaikaterini/IHP/IHP_Generation_files/130ng/SG13S_618_rev1.12.15/tech/SG13_MOS/library/spectre/sg13_moshv_psp_mod.lib"
        79: The inline subckt definition `nmoselt' does not contain any inline
        components. The `inline' qualifier will therefore be ignored.

Reading file: 
        /CASNFSHOME/home/tsaikaterini/IHP/IHP_Generation_files/130ng/SG13S_618_rev1.12.15/tech/SG13_MOS/library/spectre/sg13_svaricaphv_mosvar_mod.lib
Reading file: 
        /CASNFSHOME/home/tsaikaterini/IHP/IHP_Generation_files/130ng/SG13S_618_rev1.12.15/tech/SG13_PASSIVES/spectre/SG13_cornerRES.scs
Reading file: 
        /CASNFSHOME/home/tsaikaterini/IHP/IHP_Generation_files/130ng/SG13S_618_rev1.12.15/tech/SG13_PASSIVES/spectre/SG13_res_mm.scs
Reading file: 
        /CASNFSHOME/home/tsaikaterini/IHP/IHP_Generation_files/130ng/SG13S_618_rev1.12.15/tech/SG13_PASSIVES/spectre/SG13_res_stat.scs
Reading file: 
        /CASNFSHOME/home/tsaikaterini/IHP/IHP_Generation_files/130ng/SG13S_618_rev1.12.15/tech/SG13_PASSIVES/spectre/SG13_res.lib
Reading file: 
        /CASNFSHOME/home/tsaikaterini/IHP/IHP_Generation_files/130ng/SG13S_618_rev1.12.15/tech/SG13_PASSIVES/spectre/SG13_cornerCAP.scs
Reading file: 
        /CASNFSHOME/home/tsaikaterini/IHP/IHP_Generation_files/130ng/SG13S_618_rev1.12.15/tech/SG13_PASSIVES/spectre/SG13_cap_mm.scs
Reading file: 
        /CASNFSHOME/home/tsaikaterini/IHP/IHP_Generation_files/130ng/SG13S_618_rev1.12.15/tech/SG13_PASSIVES/spectre/SG13_cap_stat.scs
Reading file: 
        /CASNFSHOME/home/tsaikaterini/IHP/IHP_Generation_files/130ng/SG13S_618_rev1.12.15/tech/SG13_PASSIVES/spectre/SG13_cap.lib
Reading file: 
        /CASNFSHOME/home/tsaikaterini/IHP/IHP_Generation_files/130ng/SG13S_618_rev1.12.15/tech/SG13_PASSIVES/spectre/Ind_unit_4PI
Reading file: 
        /CASNFSHOME/home/tsaikaterini/IHP/IHP_Generation_files/130ng/SG13S_618_rev1.12.15/tech/SG13_PASSIVES/spectre/Parameters_define_4PI
Reading file: 
        /CASNFSHOME/home/tsaikaterini/IHP/IHP_Generation_files/130ng/SG13S_618_rev1.12.15/tech/SG13_PASSIVES/spectre/sg13s_dschottky_nbl1_mod.lib
Reading file: 
        /CASNFSHOME/home/tsaikaterini/IHP/IHP_Generation_files/130ng/SG13S_618_rev1.12.15/tech/SG13_PASSIVES/spectre/SG13_diodes.lib
Reading file: 
        /CASNFSHOME/home/tsaikaterini/IHP/IHP_Generation_files/130ng/SG13S_618_rev1.12.15/tech/SG13_MOS/library/spectre/CheckMOSstat.scs
Reading file: 
        /CASNFSHOME/home/tsaikaterini/IHP/IHP_Generation_files/130ng/SG13S_618_rev1.12.15/tech/SG13_MOS/library/spectre/CheckMOSdyn.scs
Reading file: 
        /CASNFSHOME/home/tsaikaterini/IHP/IHP_Generation_files/130ng/SG13S_618_rev1.12.15/tech/SG13_ESD/spectre/SG13_esd.lib
Reading file: 
        /CASNFSHOME/home/tsaikaterini/IHP/IHP_Generation_files/130ng/SG13S_618_rev1.12.15/tech/SG13_PASSIVES/spectre/SG13_cornerTSV.scs
Reading file: 
        /CASNFSHOME/home/tsaikaterini/IHP/IHP_Generation_files/130ng/SG13S_618_rev1.12.15/tech/SG13_PASSIVES/spectre/SG13_paramsTSV.scs
Reading file: 
        /CASNFSHOME/home/tsaikaterini/IHP/IHP_Generation_files/130ng/SG13S_618_rev1.12.15/tech/SG13_PASSIVES/spectre/SG13_tsv.lib
Reading file: 
        /CASNFSHOME/home/tsaikaterini/IHP/IHP_Generation_files/130ng/ixc013ng_stdcell_rc.scs
Time for NDB Parsing: CPU = 592.248 ms, elapsed = 1.42643 s.
Time accumulated: CPU = 714.866 ms, elapsed = 1.42643 s.
Peak resident memory used = 111 Mbytes.


Warning from spectre in `NA2JIX0':`ncell1', during hierarchy flattening.
    WARNING (SFE-103):
        "/CASNFSHOME/home/tsaikaterini/IHP/IHP_Generation_files/130ng/ixc013ng_stdcell_rc.scs"
        26304: Subcircuit parameter `nrd', defined for subcircuit
        `sg13_lv_pmos', has been ignored because it is invalid. Check the
        parameters that are defined for the instantiated subcircuit and rerun
        the simulation.
    WARNING (SFE-103):
        "/CASNFSHOME/home/tsaikaterini/IHP/IHP_Generation_files/130ng/ixc013ng_stdcell_rc.scs"
        26304: Subcircuit parameter `nrs', defined for subcircuit
        `sg13_lv_pmos', has been ignored because it is invalid. Check the
        parameters that are defined for the instantiated subcircuit and rerun
        the simulation.
    WARNING (SFE-103):
        "/CASNFSHOME/home/tsaikaterini/IHP/IHP_Generation_files/130ng/ixc013ng_stdcell_rc.scs"
        26307: Subcircuit parameter `nrd', defined for subcircuit
        `sg13_lv_pmos', has been ignored because it is invalid. Check the
        parameters that are defined for the instantiated subcircuit and rerun
        the simulation.
    WARNING (SFE-103):
        "/CASNFSHOME/home/tsaikaterini/IHP/IHP_Generation_files/130ng/ixc013ng_stdcell_rc.scs"
        26307: Subcircuit parameter `nrs', defined for subcircuit
        `sg13_lv_pmos', has been ignored because it is invalid. Check the
        parameters that are defined for the instantiated subcircuit and rerun
        the simulation.
    WARNING (SFE-103):
        "/CASNFSHOME/home/tsaikaterini/IHP/IHP_Generation_files/130ng/ixc013ng_stdcell_rc.scs"
        26310: Subcircuit parameter `nrd', defined for subcircuit
        `sg13_lv_nmos', has been ignored because it is invalid. Check the
        parameters that are defined for the instantiated subcircuit and rerun
        the simulation.
        Further occurrences of this warning will be suppressed.

Time for Elaboration: CPU = 55.163 ms, elapsed = 148.283 ms.
Time accumulated: CPU = 770.35 ms, elapsed = 1.57658 s.
Peak resident memory used = 120 Mbytes.


Time for EDB Visiting: CPU = 33.736 ms, elapsed = 34.8341 ms.
Time accumulated: CPU = 804.378 ms, elapsed = 1.6133 s.
Peak resident memory used = 126 Mbytes.


Warning from spectre during initial setup.
    WARNING (SPECTRE-17237): Assert violations will be written to the sqldb
        file because the 'checklimitdest' option has not been specified.
    WARNING (SPECTRE-17607): Assert `check_sg13s_lv_nmosHV_vgs' is ignored
        because it contains an expression which is not supported by native
        evaluator. 
    WARNING (SPECTRE-17607): Assert `check_sg13s_lv_nmosHV_vgd' is ignored
        because it contains an expression which is not supported by native
        evaluator. 
    WARNING (SPECTRE-17607): Assert `check_sg13s_lv_nmosHV_vds' is ignored
        because it contains an expression which is not supported by native
        evaluator. 
    WARNING (SPECTRE-17607): Assert `check_sg13s_lv_nmosHV_vdb' is ignored
        because it contains an expression which is not supported by native
        evaluator. 
    WARNING (SPECTRE-17607): Assert `check_sg13s_lv_nmosHV_vgb' is ignored
        because it contains an expression which is not supported by native
        evaluator. 
        Further occurrences of this warning will be suppressed.


Global user options:
               temp = 0

Scoped user options:

Circuit inventory:
              nodes 683
          capacitor 760   
          pspnqs103 160   
           resistor 600   
            vsource 3     

Analysis and control statement inventory:
         altergroup 14    
               tran 15    

Output statements:
             .probe 0     
           .measure 3     
               save 0     

Design checks inventory:
          paramtest 640   
             assert 40    


Notice from spectre.
    322 warnings suppressed.

Time for parsing: CPU = 46.032 ms, elapsed = 1.60566 s.
Time accumulated: CPU = 850.639 ms, elapsed = 3.22061 s.
Peak resident memory used = 129 Mbytes.

~~~~~~~~~~~~~~~~~~~~~~
Pre-Simulation Summary
~~~~~~~~~~~~~~~~~~~~~~
~~~~~~~~~~~~~~~~~~~~~~

Notice from spectre during transient analysis `transient1'.
    No checklimit analysis defined for asserts. A default checklimit analysis
        'SpectreChecklimitAnal' has been created with all asserts enabled.


*****************************************************
Transient Analysis `transient1': time = (0 s -> 2 ns)
*****************************************************
DC simulation time: CPU = 20.395 ms, elapsed = 20.4101 ms.

Notice from spectre during transient analysis `transient1'.
    No outputs were found. Loosening output filter criterion to `allpub'.


Opening the PSFXL file ./nand_ff.raw/transient1.tran.tran ...
Important parameter values:
    start = 0 s
    outputstart = 0 s
    stop = 2 ns
    step = 100 fs
    maxstep = 40 ps
    ic = all
    useprevic = no
    skipdc = no
    reltol = 1e-03
    abstol(V) = 1 uV
    abstol(I) = 1 pA
    temp = 0 C
    tnom = 27 C
    tempeffects = all
    errpreset = moderate
    method = traponly
    lteratio = 3.5
    relref = sigglobal
    cmin = 0 F
    gmin = 1 pS


Output and IC/nodeset summary:
                 probe  2       
                 save   3       (current)
                 save   683     (voltage)

......9......8......7......6......5......4......3......2......1......0
Number of accepted tran steps =             241

Maximum value achieved for any signal of each quantity: 
V: V(nfanout4_1.ncell13.1:Q) = 1.004 V
I: I(VVDD:p) = 93.73 uA
If your circuit contains signals of the same quantity that are vastly different
        in size (such as high voltage circuitry combined with low voltage
        control circuitry), you should consider specifying global option
        `bin_relref=yes'.

~~~~~~~~~~~~~~~~~~~~~~~~~~~~~~~~~
Post-Transient Simulation Summary
~~~~~~~~~~~~~~~~~~~~~~~~~~~~~~~~~
   -   To further speed up simulation, consider
          add ++aps on command line
~~~~~~~~~~~~~~~~~~~~~~~~~~~~~~~~~


During simulation, the CPU load for active processors is :
         0 (15.7 %)      1 (16.2 %)      2 (36.9 %)      3 (83.6 %)
         4 (100.0 %)     5 (51.8 %)      6 (100.0 %)     7 (78.5 %)
         8 (51.8 %)      9 (9.2 %)      10 (71.9 %)     11 (9.0 %)
        Total: 624.6%
Initial condition solution time: CPU = 20.607 ms, elapsed = 21.3201 ms.
Intrinsic tran analysis time:    CPU = 656.114 ms, elapsed = 713.582 ms.
Opening measure  file: 
        /CASNFSHOME2/home/sstatthoudakis/Documents/spectre/Gates/NAND2/corners/corner_pin1/gate_load/nand_ff.measure
Opening mt file: 
        /CASNFSHOME2/home/sstatthoudakis/Documents/spectre/Gates/NAND2/corners/corner_pin1/gate_load/nand_ff.mt0
Total time required for tran analysis `transient1': CPU = 760.417 ms, elapsed =
        989.883 ms, util. = 76.8%.
Time accumulated: CPU = 1.64639 s, elapsed = 4.32408 s.
Peak resident memory used = 144 Mbytes.


*************************
Alter Group `altergroup1'
*************************
Time for altergroup1: CPU = 37.986 ms, elapsed = 38.3971 ms.
Time accumulated: CPU = 1.6846 s, elapsed = 4.36371 s.
Peak resident memory used = 144 Mbytes.


*****************************************************
Transient Analysis `transient2': time = (0 s -> 2 ns)
*****************************************************
DC simulation time: CPU = 19.395 ms, elapsed = 19.3982 ms.

Notice from spectre during transient analysis `transient2'.
    No outputs were found. Loosening output filter criterion to `allpub'.


Opening the PSFXL file ./nand_ff.raw/transient2.tran.tran ...
Important parameter values:
    start = 0 s
    outputstart = 0 s
    stop = 2 ns
    step = 100 fs
    maxstep = 40 ps
    ic = all
    useprevic = no
    skipdc = no
    reltol = 1e-03
    abstol(V) = 1 uV
    abstol(I) = 1 pA
    temp = 50 C
    tnom = 27 C
    tempeffects = all
    errpreset = moderate
    method = traponly
    lteratio = 3.5
    relref = sigglobal
    cmin = 0 F
    gmin = 1 pS


Output and IC/nodeset summary:
                 probe  2       
                 save   3       (current)
                 save   683     (voltage)

......9......8......7......6......5......4......3......2......1......0
Number of accepted tran steps =             230

Maximum value achieved for any signal of each quantity: 
V: V(nfanout4_1.ncell13.2:Q) = 998.1 mV
I: I(VVDD:p) = 92.61 uA
If your circuit contains signals of the same quantity that are vastly different
        in size (such as high voltage circuitry combined with low voltage
        control circuitry), you should consider specifying global option
        `bin_relref=yes'.

~~~~~~~~~~~~~~~~~~~~~~~~~~~~~~~~~
Post-Transient Simulation Summary
~~~~~~~~~~~~~~~~~~~~~~~~~~~~~~~~~
   -   To further speed up simulation, consider
          add ++aps on command line
~~~~~~~~~~~~~~~~~~~~~~~~~~~~~~~~~


During simulation, the CPU load for active processors is :
         0 (15.3 %)      1 (14.5 %)      2 (44.2 %)      3 (87.4 %)
         4 (100.0 %)     5 (44.9 %)      6 (100.0 %)     7 (83.5 %)
         8 (47.4 %)      9 (7.5 %)      10 (78.3 %)     11 (7.9 %)
        Total: 631.0%
Initial condition solution time: CPU = 19.542 ms, elapsed = 20.097 ms.
Intrinsic tran analysis time:    CPU = 623.494 ms, elapsed = 735.817 ms.
Opening mt file: 
        /CASNFSHOME2/home/sstatthoudakis/Documents/spectre/Gates/NAND2/corners/corner_pin1/gate_load/nand_ff.mt1
Total time required for tran analysis `transient2': CPU = 653.803 ms, elapsed =
        779.562 ms, util. = 83.9%.
Time accumulated: CPU = 2.35353 s, elapsed = 5.27403 s.
Peak resident memory used = 144 Mbytes.


*************************
Alter Group `altergroup2'
*************************
Time for altergroup2: CPU = 17.1 ms, elapsed = 17.3571 ms.
Time accumulated: CPU = 2.37074 s, elapsed = 5.29291 s.
Peak resident memory used = 144 Mbytes.


*****************************************************
Transient Analysis `transient3': time = (0 s -> 2 ns)
*****************************************************
DC simulation time: CPU = 16.79 ms, elapsed = 16.793 ms.

Notice from spectre during transient analysis `transient3'.
    No outputs were found. Loosening output filter criterion to `allpub'.


Opening the PSFXL file ./nand_ff.raw/transient3.tran.tran ...
Important parameter values:
    start = 0 s
    outputstart = 0 s
    stop = 2 ns
    step = 100 fs
    maxstep = 40 ps
    ic = all
    useprevic = no
    skipdc = no
    reltol = 1e-03
    abstol(V) = 1 uV
    abstol(I) = 1 pA
    temp = 125 C
    tnom = 27 C
    tempeffects = all
    errpreset = moderate
    method = traponly
    lteratio = 3.5
    relref = sigglobal
    cmin = 0 F
    gmin = 1 pS


Output and IC/nodeset summary:
                 probe  2       
                 save   3       (current)
                 save   683     (voltage)

......9......8......7......6......5......4......3......2......1......0
Number of accepted tran steps =             222

Maximum value achieved for any signal of each quantity: 
V: V(nfanout4_1.ncell12.2:Q) = 987.4 mV
I: I(VVDD:p) = 95.7 uA
If your circuit contains signals of the same quantity that are vastly different
        in size (such as high voltage circuitry combined with low voltage
        control circuitry), you should consider specifying global option
        `bin_relref=yes'.

~~~~~~~~~~~~~~~~~~~~~~~~~~~~~~~~~
Post-Transient Simulation Summary
~~~~~~~~~~~~~~~~~~~~~~~~~~~~~~~~~
   -   To further speed up simulation, consider
          add ++aps on command line
~~~~~~~~~~~~~~~~~~~~~~~~~~~~~~~~~


During simulation, the CPU load for active processors is :
         0 (22.0 %)      1 (13.7 %)      2 (48.5 %)      3 (89.4 %)
         4 (100.0 %)     5 (41.4 %)      6 (100.0 %)     7 (78.4 %)
         8 (40.0 %)      9 (6.6 %)      10 (81.8 %)     11 (12.5 %)
        Total: 634.3%
Initial condition solution time: CPU = 16.909 ms, elapsed = 17.39 ms.
Intrinsic tran analysis time:    CPU = 609.938 ms, elapsed = 754.735 ms.
Opening mt file: 
        /CASNFSHOME2/home/sstatthoudakis/Documents/spectre/Gates/NAND2/corners/corner_pin1/gate_load/nand_ff.mt2
Total time required for tran analysis `transient3': CPU = 635.02 ms, elapsed =
        845.554 ms, util. = 75.1%.
Time accumulated: CPU = 3.02144 s, elapsed = 6.24776 s.
Peak resident memory used = 144 Mbytes.


*************************
Alter Group `altergroup3'
*************************
Time for altergroup3: CPU = 20.844 ms, elapsed = 21.6279 ms.
Time accumulated: CPU = 3.04239 s, elapsed = 6.27157 s.
Peak resident memory used = 144 Mbytes.


*****************************************************
Transient Analysis `transient4': time = (0 s -> 2 ns)
*****************************************************
DC simulation time: CPU = 18.011 ms, elapsed = 18.014 ms.

Notice from spectre during transient analysis `transient4'.
    No outputs were found. Loosening output filter criterion to `allpub'.


Opening the PSFXL file ./nand_ff.raw/transient4.tran.tran ...
Important parameter values:
    start = 0 s
    outputstart = 0 s
    stop = 2 ns
    step = 100 fs
    maxstep = 40 ps
    ic = all
    useprevic = no
    skipdc = no
    reltol = 1e-03
    abstol(V) = 1 uV
    abstol(I) = 1 pA
    temp = 0 C
    tnom = 27 C
    tempeffects = all
    errpreset = moderate
    method = traponly
    lteratio = 3.5
    relref = sigglobal
    cmin = 0 F
    gmin = 1 pS


Output and IC/nodeset summary:
                 probe  2       
                 save   3       (current)
                 save   683     (voltage)

......9......8......7......6......5......4......3......2......1......0
Number of accepted tran steps =             261

Maximum value achieved for any signal of each quantity: 
V: V(nfanout4_1.ncell13.2:Q) = 1.095 V
I: I(VGND:p) = 125.7 uA
If your circuit contains signals of the same quantity that are vastly different
        in size (such as high voltage circuitry combined with low voltage
        control circuitry), you should consider specifying global option
        `bin_relref=yes'.

~~~~~~~~~~~~~~~~~~~~~~~~~~~~~~~~~
Post-Transient Simulation Summary
~~~~~~~~~~~~~~~~~~~~~~~~~~~~~~~~~
   -   To further speed up simulation, consider
          add ++aps on command line
~~~~~~~~~~~~~~~~~~~~~~~~~~~~~~~~~


During simulation, the CPU load for active processors is :
         0 (31.3 %)      1 (17.0 %)      2 (53.2 %)      3 (84.7 %)
         4 (100.0 %)     5 (38.8 %)      6 (94.5 %)      7 (69.8 %)
         8 (42.0 %)      9 (9.2 %)      10 (84.5 %)     11 (17.3 %)
        Total: 642.3%
Initial condition solution time: CPU = 18.15 ms, elapsed = 18.9989 ms.
Intrinsic tran analysis time:    CPU = 741.09 ms, elapsed = 823.14 ms.
Opening mt file: 
        /CASNFSHOME2/home/sstatthoudakis/Documents/spectre/Gates/NAND2/corners/corner_pin1/gate_load/nand_ff.mt3
Total time required for tran analysis `transient4': CPU = 769.726 ms, elapsed =
        899.206 ms, util. = 85.6%.
Time accumulated: CPU = 3.83408 s, elapsed = 7.29691 s.
Peak resident memory used = 149 Mbytes.


*************************
Alter Group `altergroup4'
*************************
Time for altergroup4: CPU = 30.438 ms, elapsed = 30.9858 ms.
Time accumulated: CPU = 3.86473 s, elapsed = 7.32977 s.
Peak resident memory used = 149 Mbytes.


*****************************************************
Transient Analysis `transient5': time = (0 s -> 2 ns)
*****************************************************
DC simulation time: CPU = 27.421 ms, elapsed = 27.4248 ms.

Notice from spectre during transient analysis `transient5'.
    No outputs were found. Loosening output filter criterion to `allpub'.


Opening the PSFXL file ./nand_ff.raw/transient5.tran.tran ...
Important parameter values:
    start = 0 s
    outputstart = 0 s
    stop = 2 ns
    step = 100 fs
    maxstep = 40 ps
    ic = all
    useprevic = no
    skipdc = no
    reltol = 1e-03
    abstol(V) = 1 uV
    abstol(I) = 1 pA
    temp = 50 C
    tnom = 27 C
    tempeffects = all
    errpreset = moderate
    method = traponly
    lteratio = 3.5
    relref = sigglobal
    cmin = 0 F
    gmin = 1 pS


Output and IC/nodeset summary:
                 probe  2       
                 save   3       (current)
                 save   683     (voltage)

......9......8......7......6......5......4......3......2......1......0
Number of accepted tran steps =             251

Maximum value achieved for any signal of each quantity: 
V: V(nfanout4_1.ncell11.2:Q) = 1.09 V
I: I(VGND:p) = 123.7 uA
If your circuit contains signals of the same quantity that are vastly different
        in size (such as high voltage circuitry combined with low voltage
        control circuitry), you should consider specifying global option
        `bin_relref=yes'.

~~~~~~~~~~~~~~~~~~~~~~~~~~~~~~~~~
Post-Transient Simulation Summary
~~~~~~~~~~~~~~~~~~~~~~~~~~~~~~~~~
   -   To further speed up simulation, consider
          add ++aps on command line
~~~~~~~~~~~~~~~~~~~~~~~~~~~~~~~~~


During simulation, the CPU load for active processors is :
         0 (40.8 %)      1 (18.8 %)      2 (56.7 %)      3 (78.7 %)
         4 (100.0 %)     5 (39.6 %)      6 (84.5 %)      7 (60.7 %)
         8 (36.4 %)      9 (18.5 %)     10 (86.6 %)     11 (28.7 %)
        Total: 650.0%
Initial condition solution time: CPU = 27.538 ms, elapsed = 28.3442 ms.
Intrinsic tran analysis time:    CPU = 777.535 ms, elapsed = 928.19 ms.
Opening mt file: 
        /CASNFSHOME2/home/sstatthoudakis/Documents/spectre/Gates/NAND2/corners/corner_pin1/gate_load/nand_ff.mt4
Total time required for tran analysis `transient5': CPU = 813.874 ms, elapsed =
        982.24 ms, util. = 82.9%.
Time accumulated: CPU = 4.69888 s, elapsed = 8.53986 s.
Peak resident memory used = 149 Mbytes.


*************************
Alter Group `altergroup5'
*************************
Time for altergroup5: CPU = 18.062 ms, elapsed = 18.6059 ms.
Time accumulated: CPU = 4.71707 s, elapsed = 8.56013 s.
Peak resident memory used = 149 Mbytes.


*****************************************************
Transient Analysis `transient6': time = (0 s -> 2 ns)
*****************************************************
DC simulation time: CPU = 16.292 ms, elapsed = 16.2969 ms.

Notice from spectre during transient analysis `transient6'.
    No outputs were found. Loosening output filter criterion to `allpub'.


Opening the PSFXL file ./nand_ff.raw/transient6.tran.tran ...
Important parameter values:
    start = 0 s
    outputstart = 0 s
    stop = 2 ns
    step = 100 fs
    maxstep = 40 ps
    ic = all
    useprevic = no
    skipdc = no
    reltol = 1e-03
    abstol(V) = 1 uV
    abstol(I) = 1 pA
    temp = 125 C
    tnom = 27 C
    tempeffects = all
    errpreset = moderate
    method = traponly
    lteratio = 3.5
    relref = sigglobal
    cmin = 0 F
    gmin = 1 pS


Output and IC/nodeset summary:
                 probe  2       
                 save   3       (current)
                 save   683     (voltage)

......9......8......7......6......5......4......3......2......1......0
Number of accepted tran steps =             242

Maximum value achieved for any signal of each quantity: 
V: V(nfanout4_1.ncell13.2:Q) = 1.083 V
I: I(VVDD:p) = 126.9 uA
If your circuit contains signals of the same quantity that are vastly different
        in size (such as high voltage circuitry combined with low voltage
        control circuitry), you should consider specifying global option
        `bin_relref=yes'.

~~~~~~~~~~~~~~~~~~~~~~~~~~~~~~~~~
Post-Transient Simulation Summary
~~~~~~~~~~~~~~~~~~~~~~~~~~~~~~~~~
   -   To further speed up simulation, consider
          add ++aps on command line
~~~~~~~~~~~~~~~~~~~~~~~~~~~~~~~~~


During simulation, the CPU load for active processors is :
         0 (48.1 %)      1 (19.5 %)      2 (57.6 %)      3 (78.1 %)
         4 (100.0 %)     5 (35.2 %)      6 (79.5 %)      7 (57.8 %)
         8 (32.3 %)      9 (17.1 %)     10 (84.4 %)     11 (37.5 %)
        Total: 647.0%
Initial condition solution time: CPU = 16.432 ms, elapsed = 16.9981 ms.
Intrinsic tran analysis time:    CPU = 668.36 ms, elapsed = 792.7 ms.
Opening mt file: 
        /CASNFSHOME2/home/sstatthoudakis/Documents/spectre/Gates/NAND2/corners/corner_pin1/gate_load/nand_ff.mt5
Total time required for tran analysis `transient6': CPU = 694.902 ms, elapsed =
        885.82 ms, util. = 78.4%.
Time accumulated: CPU = 5.42792 s, elapsed = 9.53749 s.
Peak resident memory used = 149 Mbytes.


*************************
Alter Group `altergroup6'
*************************
Time for altergroup6: CPU = 17.271 ms, elapsed = 18.147 ms.
Time accumulated: CPU = 5.44531 s, elapsed = 9.55727 s.
Peak resident memory used = 149 Mbytes.


*****************************************************
Transient Analysis `transient7': time = (0 s -> 2 ns)
*****************************************************
DC simulation time: CPU = 16.397 ms, elapsed = 16.402 ms.

Notice from spectre during transient analysis `transient7'.
    No outputs were found. Loosening output filter criterion to `allpub'.


Opening the PSFXL file ./nand_ff.raw/transient7.tran.tran ...
Important parameter values:
    start = 0 s
    outputstart = 0 s
    stop = 2 ns
    step = 100 fs
    maxstep = 40 ps
    ic = all
    useprevic = no
    skipdc = no
    reltol = 1e-03
    abstol(V) = 1 uV
    abstol(I) = 1 pA
    temp = 0 C
    tnom = 27 C
    tempeffects = all
    errpreset = moderate
    method = traponly
    lteratio = 3.5
    relref = sigglobal
    cmin = 0 F
    gmin = 1 pS


Output and IC/nodeset summary:
                 probe  2       
                 save   3       (current)
                 save   683     (voltage)

......9......8......7......6......5...

Notice from spectre at time = 1.12177 ns during transient analysis
        `transient7'.
    Found trapezoidal ringing on node VGND:p.

......9......8......7......6......5....

Notice from spectre at time = 1.155 ns during transient analysis `transient7'.
    Found trapezoidal ringing on node VGND:p.

......9......8......7......6......5......4......3......2......1......0
Number of accepted tran steps =             283

Notice from spectre during transient analysis `transient7'.
    Trapezoidal ringing is detected during tran analysis.
        Please use method=trap for better results and performance.


Maximum value achieved for any signal of each quantity: 
V: V(nfanout4_10.ncell13.1:Q) = 1.193 V
I: I(VGND:p) = 164.4 uA
If your circuit contains signals of the same quantity that are vastly different
        in size (such as high voltage circuitry combined with low voltage
        control circuitry), you should consider specifying global option
        `bin_relref=yes'.

~~~~~~~~~~~~~~~~~~~~~~~~~~~~~~~~~
Post-Transient Simulation Summary
~~~~~~~~~~~~~~~~~~~~~~~~~~~~~~~~~
   -   To further speed up simulation, consider
          add ++aps on command line
~~~~~~~~~~~~~~~~~~~~~~~~~~~~~~~~~


During simulation, the CPU load for active processors is :
         0 (53.6 %)      1 (17.8 %)      2 (60.0 %)      3 (73.9 %)
         4 (100.0 %)     5 (32.1 %)      6 (75.0 %)      7 (62.4 %)
         8 (29.6 %)      9 (21.7 %)     10 (75.5 %)     11 (44.2 %)
        Total: 645.7%
Initial condition solution time: CPU = 16.52 ms, elapsed = 17.2331 ms.
Intrinsic tran analysis time:    CPU = 814.982 ms, elapsed = 932.089 ms.
Opening mt file: 
        /CASNFSHOME2/home/sstatthoudakis/Documents/spectre/Gates/NAND2/corners/corner_pin1/gate_load/nand_ff.mt6
Total time required for tran analysis `transient7': CPU = 841.391 ms, elapsed =
        972.504 ms, util. = 86.5%.
Time accumulated: CPU = 6.30455 s, elapsed = 10.6341 s.
Peak resident memory used = 149 Mbytes.


*************************
Alter Group `altergroup7'
*************************
Time for altergroup7: CPU = 20.057 ms, elapsed = 20.998 ms.
Time accumulated: CPU = 6.32477 s, elapsed = 10.6566 s.
Peak resident memory used = 149 Mbytes.


*****************************************************
Transient Analysis `transient8': time = (0 s -> 2 ns)
*****************************************************
DC simulation time: CPU = 18.102 ms, elapsed = 18.1041 ms.

Notice from spectre during transient analysis `transient8'.
    No outputs were found. Loosening output filter criterion to `allpub'.


Opening the PSFXL file ./nand_ff.raw/transient8.tran.tran ...
Important parameter values:
    start = 0 s
    outputstart = 0 s
    stop = 2 ns
    step = 100 fs
    maxstep = 40 ps
    ic = all
    useprevic = no
    skipdc = no
    reltol = 1e-03
    abstol(V) = 1 uV
    abstol(I) = 1 pA
    temp = 50 C
    tnom = 27 C
    tempeffects = all
    errpreset = moderate
    method = traponly
    lteratio = 3.5
    relref = sigglobal
    cmin = 0 F
    gmin = 1 pS


Output and IC/nodeset summary:
                 probe  2       
                 save   3       (current)
                 save   683     (voltage)

......9......8......7......6......5......4......3......2......1......0
Number of accepted tran steps =             266

Maximum value achieved for any signal of each quantity: 
V: V(nfanout4_10.ncell13.1:Q) = 1.188 V
I: I(VGND:p) = 161.5 uA
If your circuit contains signals of the same quantity that are vastly different
        in size (such as high voltage circuitry combined with low voltage
        control circuitry), you should consider specifying global option
        `bin_relref=yes'.

~~~~~~~~~~~~~~~~~~~~~~~~~~~~~~~~~
Post-Transient Simulation Summary
~~~~~~~~~~~~~~~~~~~~~~~~~~~~~~~~~
   -   To further speed up simulation, consider
          add ++aps on command line
~~~~~~~~~~~~~~~~~~~~~~~~~~~~~~~~~


During simulation, the CPU load for active processors is :
         0 (57.7 %)      1 (23.5 %)      2 (57.0 %)      3 (70.0 %)
         4 (100.0 %)     5 (32.2 %)      6 (69.9 %)      7 (65.6 %)
         8 (31.6 %)      9 (25.6 %)     10 (70.4 %)     11 (49.1 %)
        Total: 652.6%
Initial condition solution time: CPU = 18.226 ms, elapsed = 18.748 ms.
Intrinsic tran analysis time:    CPU = 749.787 ms, elapsed = 851.696 ms.
Opening mt file: 
        /CASNFSHOME2/home/sstatthoudakis/Documents/spectre/Gates/NAND2/corners/corner_pin1/gate_load/nand_ff.mt7
Total time required for tran analysis `transient8': CPU = 776.739 ms, elapsed =
        919.646 ms, util. = 84.5%.
Time accumulated: CPU = 7.11794 s, elapsed = 11.6717 s.
Peak resident memory used = 150 Mbytes.


*************************
Alter Group `altergroup8'
*************************
Time for altergroup8: CPU = 17.516 ms, elapsed = 18.075 ms.
Time accumulated: CPU = 7.13557 s, elapsed = 11.6917 s.
Peak resident memory used = 150 Mbytes.


*****************************************************
Transient Analysis `transient9': time = (0 s -> 2 ns)
*****************************************************
DC simulation time: CPU = 16.338 ms, elapsed = 16.345 ms.

Notice from spectre during transient analysis `transient9'.
    No outputs were found. Loosening output filter criterion to `allpub'.


Opening the PSFXL file ./nand_ff.raw/transient9.tran.tran ...
Important parameter values:
    start = 0 s
    outputstart = 0 s
    stop = 2 ns
    step = 100 fs
    maxstep = 40 ps
    ic = all
    useprevic = no
    skipdc = no
    reltol = 1e-03
    abstol(V) = 1 uV
    abstol(I) = 1 pA
    temp = 125 C
    tnom = 27 C
    tempeffects = all
    errpreset = moderate
    method = traponly
    lteratio = 3.5
    relref = sigglobal
    cmin = 0 F
    gmin = 1 pS


Output and IC/nodeset summary:
                 probe  2       
                 save   3       (current)
                 save   683     (voltage)

......9......8......7......6......5......4......3......2......1......0
Number of accepted tran steps =             257

Maximum value achieved for any signal of each quantity: 
V: V(nfanout4_10.ncell13.2:Q) = 1.182 V
I: I(VVDD:p) = 163.7 uA
If your circuit contains signals of the same quantity that are vastly different
        in size (such as high voltage circuitry combined with low voltage
        control circuitry), you should consider specifying global option
        `bin_relref=yes'.

~~~~~~~~~~~~~~~~~~~~~~~~~~~~~~~~~
Post-Transient Simulation Summary
~~~~~~~~~~~~~~~~~~~~~~~~~~~~~~~~~
   -   To further speed up simulation, consider
          add ++aps on command line
~~~~~~~~~~~~~~~~~~~~~~~~~~~~~~~~~


During simulation, the CPU load for active processors is :
         0 (61.5 %)      1 (23.8 %)      2 (53.8 %)      3 (69.3 %)
         4 (100.0 %)     5 (31.1 %)      6 (67.4 %)      7 (68.7 %)
         8 (37.6 %)      9 (27.3 %)     10 (65.8 %)     11 (48.8 %)
        Total: 655.1%
Initial condition solution time: CPU = 16.463 ms, elapsed = 16.834 ms.
Intrinsic tran analysis time:    CPU = 727.917 ms, elapsed = 911.402 ms.
Opening mt file: 
        /CASNFSHOME2/home/sstatthoudakis/Documents/spectre/Gates/NAND2/corners/corner_pin1/gate_load/nand_ff.mt8
Total time required for tran analysis `transient9': CPU = 752.816 ms, elapsed =
        972.332 ms, util. = 77.4%.
Time accumulated: CPU = 7.90824 s, elapsed = 12.9609 s.
Peak resident memory used = 150 Mbytes.


*************************
Alter Group `altergroup9'
*************************
Time for altergroup9: CPU = 19.697 ms, elapsed = 21.2851 ms.
Time accumulated: CPU = 7.92816 s, elapsed = 12.9871 s.
Peak resident memory used = 150 Mbytes.


******************************************************
Transient Analysis `transient10': time = (0 s -> 2 ns)
******************************************************
DC simulation time: CPU = 17.076 ms, elapsed = 17.0801 ms.

Notice from spectre during transient analysis `transient10'.
    No outputs were found. Loosening output filter criterion to `allpub'.


Opening the PSFXL file ./nand_ff.raw/transient10.tran.tran ...
Important parameter values:
    start = 0 s
    outputstart = 0 s
    stop = 2 ns
    step = 100 fs
    maxstep = 40 ps
    ic = all
    useprevic = no
    skipdc = no
    reltol = 1e-03
    abstol(V) = 1 uV
    abstol(I) = 1 pA
    temp = 0 C
    tnom = 27 C
    tempeffects = all
    errpreset = moderate
    method = traponly
    lteratio = 3.5
    relref = sigglobal
    cmin = 0 F
    gmin = 1 pS


Output and IC/nodeset summary:
                 probe  2       
                 save   3       (current)
                 save   683     (voltage)

......9......8......7......6......5

Notice from spectre at time = 1.04874 ns during transient analysis
        `transient10'.
    Found trapezoidal ringing on node VVDD:p.

......9......8......7......6......5..

Notice from spectre at time = 1.08874 ns during transient analysis
        `transient10'.
    Found trapezoidal ringing on node VVDD:p.

......9......8......7......6......5...

Notice from spectre at time = 1.12187 ns during transient analysis
        `transient10'.
    Found trapezoidal ringing on node VVDD:p.

......9......8......7......6......5....

Notice from spectre at time = 1.155 ns during transient analysis
        `transient10'.
    Found trapezoidal ringing on node VVDD:p.

......9......8......7......6......5......4......3......2......1......0
Number of accepted tran steps =             289

Notice from spectre during transient analysis `transient10'.
    Trapezoidal ringing is detected during tran analysis.
        Please use method=trap for better results and performance.


Maximum value achieved for any signal of each quantity: 
V: V(nfanout4_10.ncell12.1:Q) = 1.292 V
I: I(VVDD:p) = 208.5 uA
If your circuit contains signals of the same quantity that are vastly different
        in size (such as high voltage circuitry combined with low voltage
        control circuitry), you should consider specifying global option
        `bin_relref=yes'.

~~~~~~~~~~~~~~~~~~~~~~~~~~~~~~~~~
Post-Transient Simulation Summary
~~~~~~~~~~~~~~~~~~~~~~~~~~~~~~~~~
   -   To further speed up simulation, consider
          add ++aps on command line
~~~~~~~~~~~~~~~~~~~~~~~~~~~~~~~~~


During simulation, the CPU load for active processors is :
         0 (65.2 %)      1 (24.9 %)      2 (53.8 %)      3 (67.9 %)
         4 (100.0 %)     5 (30.1 %)      6 (70.5 %)      7 (69.6 %)
         8 (43.7 %)      9 (26.7 %)     10 (60.5 %)     11 (46.0 %)
        Total: 658.8%
Initial condition solution time: CPU = 17.196 ms, elapsed = 17.977 ms.
Intrinsic tran analysis time:    CPU = 810.971 ms, elapsed = 964.9 ms.
Opening mt file: 
        /CASNFSHOME2/home/sstatthoudakis/Documents/spectre/Gates/NAND2/corners/corner_pin1/gate_load/nand_ff.mt9
Total time required for tran analysis `transient10': CPU = 836.866 ms, elapsed
        = 1.01252 s, util. = 82.7%.
Time accumulated: CPU = 8.78555 s, elapsed = 14.2334 s.
Peak resident memory used = 150 Mbytes.


**************************
Alter Group `altergroup10'
**************************
Time for altergroup10: CPU = 20.93 ms, elapsed = 21.8151 ms.
Time accumulated: CPU = 8.80663 s, elapsed = 14.2577 s.
Peak resident memory used = 150 Mbytes.


******************************************************
Transient Analysis `transient11': time = (0 s -> 2 ns)
******************************************************
DC simulation time: CPU = 19.877 ms, elapsed = 19.882 ms.

Notice from spectre during transient analysis `transient11'.
    No outputs were found. Loosening output filter criterion to `allpub'.


Opening the PSFXL file ./nand_ff.raw/transient11.tran.tran ...
Important parameter values:
    start = 0 s
    outputstart = 0 s
    stop = 2 ns
    step = 100 fs
    maxstep = 40 ps
    ic = all
    useprevic = no
    skipdc = no
    reltol = 1e-03
    abstol(V) = 1 uV
    abstol(I) = 1 pA
    temp = 50 C
    tnom = 27 C
    tempeffects = all
    errpreset = moderate
    method = traponly
    lteratio = 3.5
    relref = sigglobal
    cmin = 0 F
    gmin = 1 pS


Output and IC/nodeset summary:
                 probe  2       
                 save   3       (current)
                 save   683     (voltage)

......9......8......7......6......5....

Notice from spectre at time = 1.12975 ns during transient analysis
        `transient11'.
    Found trapezoidal ringing on node nfanout4_10.ncell11.net15.

......9......8......7......6......5.....

Notice from spectre at time = 1.155 ns during transient analysis
        `transient11'.
    Found trapezoidal ringing on node nfanout4_10.ncell11.net15.

......9......8......7......6......5......4......3......2......1......0
Number of accepted tran steps =             285

Notice from spectre during transient analysis `transient11'.
    Trapezoidal ringing is detected during tran analysis.
        Please use method=trap for better results and performance.


Maximum value achieved for any signal of each quantity: 
V: V(nfanout4_10.ncell12.2:Q) = 1.288 V
I: I(VVDD:p) = 204.5 uA
If your circuit contains signals of the same quantity that are vastly different
        in size (such as high voltage circuitry combined with low voltage
        control circuitry), you should consider specifying global option
        `bin_relref=yes'.

~~~~~~~~~~~~~~~~~~~~~~~~~~~~~~~~~
Post-Transient Simulation Summary
~~~~~~~~~~~~~~~~~~~~~~~~~~~~~~~~~
   -   To further speed up simulation, consider
          add ++aps on command line
~~~~~~~~~~~~~~~~~~~~~~~~~~~~~~~~~


During simulation, the CPU load for active processors is :
         0 (68.1 %)      1 (28.6 %)      2 (53.5 %)      3 (63.9 %)
         4 (100.0 %)     5 (29.1 %)      6 (68.9 %)      7 (67.9 %)
         8 (47.6 %)      9 (28.2 %)     10 (56.9 %)     11 (44.6 %)
        Total: 657.3%
Initial condition solution time: CPU = 20.017 ms, elapsed = 21.143 ms.
Intrinsic tran analysis time:    CPU = 778.123 ms, elapsed = 958.718 ms.
Opening mt file: 
        /CASNFSHOME2/home/sstatthoudakis/Documents/spectre/Gates/NAND2/corners/corner_pin1/gate_load/nand_ff.mt10
Total time required for tran analysis `transient11': CPU = 806.453 ms, elapsed
        = 1.00864 s, util. = 80%.
Time accumulated: CPU = 9.63299 s, elapsed = 15.3679 s.
Peak resident memory used = 150 Mbytes.


**************************
Alter Group `altergroup11'
**************************
Time for altergroup11: CPU = 20.737 ms, elapsed = 21.0409 ms.
Time accumulated: CPU = 9.65386 s, elapsed = 15.39 s.
Peak resident memory used = 150 Mbytes.


******************************************************
Transient Analysis `transient12': time = (0 s -> 2 ns)
******************************************************
DC simulation time: CPU = 19.46 ms, elapsed = 19.475 ms.

Notice from spectre during transient analysis `transient12'.
    No outputs were found. Loosening output filter criterion to `allpub'.


Opening the PSFXL file ./nand_ff.raw/transient12.tran.tran ...
Important parameter values:
    start = 0 s
    outputstart = 0 s
    stop = 2 ns
    step = 100 fs
    maxstep = 40 ps
    ic = all
    useprevic = no
    skipdc = no
    reltol = 1e-03
    abstol(V) = 1 uV
    abstol(I) = 1 pA
    temp = 125 C
    tnom = 27 C
    tempeffects = all
    errpreset = moderate
    method = traponly
    lteratio = 3.5
    relref = sigglobal
    cmin = 0 F
    gmin = 1 pS


Output and IC/nodeset summary:
                 probe  2       
                 save   3       (current)
                 save   683     (voltage)

......9......8......7......6......5....

Notice from spectre at time = 1.155 ns during transient analysis
        `transient12'.
    Found trapezoidal ringing on node VGND:p.

......9......8......7......6......5......4......3......2......1......0
Number of accepted tran steps =             279

Notice from spectre during transient analysis `transient12'.
    Trapezoidal ringing is detected during tran analysis.
        Please use method=trap for better results and performance.


Maximum value achieved for any signal of each quantity: 
V: V(nfanout4_10.ncell11.1:Q) = 1.283 V
I: I(VVDD:p) = 205.2 uA
If your circuit contains signals of the same quantity that are vastly different
        in size (such as high voltage circuitry combined with low voltage
        control circuitry), you should consider specifying global option
        `bin_relref=yes'.

~~~~~~~~~~~~~~~~~~~~~~~~~~~~~~~~~
Post-Transient Simulation Summary
~~~~~~~~~~~~~~~~~~~~~~~~~~~~~~~~~
   -   To further speed up simulation, consider
          add ++aps on command line
~~~~~~~~~~~~~~~~~~~~~~~~~~~~~~~~~


During simulation, the CPU load for active processors is :
         0 (70.2 %)      1 (30.0 %)      2 (50.7 %)      3 (62.5 %)
         4 (100.0 %)     5 (28.7 %)      6 (64.6 %)      7 (64.9 %)
         8 (44.5 %)      9 (32.8 %)     10 (53.5 %)     11 (47.6 %)
        Total: 649.9%
Initial condition solution time: CPU = 19.59 ms, elapsed = 20.0579 ms.
Intrinsic tran analysis time:    CPU = 795.311 ms, elapsed = 891.506 ms.
Opening mt file: 
        /CASNFSHOME2/home/sstatthoudakis/Documents/spectre/Gates/NAND2/corners/corner_pin1/gate_load/nand_ff.mt11
Total time required for tran analysis `transient12': CPU = 823.558 ms, elapsed
        = 962.062 ms, util. = 85.6%.
Time accumulated: CPU = 10.4966 s, elapsed = 16.5001 s.
Peak resident memory used = 150 Mbytes.


**************************
Alter Group `altergroup12'
**************************
Time for altergroup12: CPU = 19.299 ms, elapsed = 20.0901 ms.
Time accumulated: CPU = 10.516 s, elapsed = 16.5218 s.
Peak resident memory used = 150 Mbytes.


******************************************************
Transient Analysis `transient13': time = (0 s -> 2 ns)
******************************************************
DC simulation time: CPU = 16.842 ms, elapsed = 16.8769 ms.

Notice from spectre during transient analysis `transient13'.
    No outputs were found. Loosening output filter criterion to `allpub'.


Opening the PSFXL file ./nand_ff.raw/transient13.tran.tran ...
Important parameter values:
    start = 0 s
    outputstart = 0 s
    stop = 2 ns
    step = 100 fs
    maxstep = 40 ps
    ic = all
    useprevic = no
    skipdc = no
    reltol = 1e-03
    abstol(V) = 1 uV
    abstol(I) = 1 pA
    temp = 0 C
    tnom = 27 C
    tempeffects = all
    errpreset = moderate
    method = traponly
    lteratio = 3.5
    relref = sigglobal
    cmin = 0 F
    gmin = 1 pS


Output and IC/nodeset summary:
                 probe  2       
                 save   3       (current)
                 save   683     (voltage)

......9......8......7......6......

Notice from spectre at time = 1.01008 ns during transient analysis
        `transient13'.
    Found trapezoidal ringing on node VGND:p.

......9......8......7......6......5

Notice from spectre at time = 1.05008 ns during transient analysis
        `transient13'.
    Found trapezoidal ringing on node VGND:p.

......9......8......7......6......5..

Notice from spectre at time = 1.09008 ns during transient analysis
        `transient13'.
    Found trapezoidal ringing on node VGND:p.

......9......8......7......6......5...

Notice from spectre at time = 1.12254 ns during transient analysis
        `transient13'.
    Found trapezoidal ringing on node VGND:p.

......9......8......7......6......5....

Notice from spectre at time = 1.155 ns during transient analysis
        `transient13'.
    Found trapezoidal ringing on node VGND:p.
        Further occurrences of this notice will be suppressed (except in log
        file).

......9......8......7......6......5......4......3......2......1......0
Number of accepted tran steps =             302

Notice from spectre during transient analysis `transient13'.
    Trapezoidal ringing is detected during tran analysis.
        Please use method=trap for better results and performance.


Maximum value achieved for any signal of each quantity: 
V: V(nfanout4_10.ncell12.1:Q) = 1.392 V
I: I(VGND:p) = 259 uA
If your circuit contains signals of the same quantity that are vastly different
        in size (such as high voltage circuitry combined with low voltage
        control circuitry), you should consider specifying global option
        `bin_relref=yes'.

~~~~~~~~~~~~~~~~~~~~~~~~~~~~~~~~~
Post-Transient Simulation Summary
~~~~~~~~~~~~~~~~~~~~~~~~~~~~~~~~~
   -   To further speed up simulation, consider
          add ++aps on command line
~~~~~~~~~~~~~~~~~~~~~~~~~~~~~~~~~


During simulation, the CPU load for active processors is :
         0 (68.1 %)      1 (30.9 %)      2 (47.9 %)      3 (62.5 %)
         4 (100.0 %)     5 (28.6 %)      6 (60.4 %)      7 (64.2 %)
         8 (42.6 %)      9 (38.2 %)     10 (49.7 %)     11 (47.5 %)
        Total: 640.6%
Initial condition solution time: CPU = 16.963 ms, elapsed = 18.9359 ms.
Intrinsic tran analysis time:    CPU = 882.096 ms, elapsed = 1.14492 s.
Opening mt file: 
        /CASNFSHOME2/home/sstatthoudakis/Documents/spectre/Gates/NAND2/corners/corner_pin1/gate_load/nand_ff.mt12
Total time required for tran analysis `transient13': CPU = 908.885 ms, elapsed
        = 1.24619 s, util. = 72.9%.
Time accumulated: CPU = 11.4459 s, elapsed = 17.9428 s.
Peak resident memory used = 150 Mbytes.


**************************
Alter Group `altergroup13'
**************************
Time for altergroup13: CPU = 17.396 ms, elapsed = 17.8561 ms.
Time accumulated: CPU = 11.4634 s, elapsed = 17.9619 s.
Peak resident memory used = 150 Mbytes.


******************************************************
Transient Analysis `transient14': time = (0 s -> 2 ns)
******************************************************
DC simulation time: CPU = 18.879 ms, elapsed = 18.909 ms.

Notice from spectre during transient analysis `transient14'.
    No outputs were found. Loosening output filter criterion to `allpub'.


Opening the PSFXL file ./nand_ff.raw/transient14.tran.tran ...
Important parameter values:
    start = 0 s
    outputstart = 0 s
    stop = 2 ns
    step = 100 fs
    maxstep = 40 ps
    ic = all
    useprevic = no
    skipdc = no
    reltol = 1e-03
    abstol(V) = 1 uV
    abstol(I) = 1 pA
    temp = 50 C
    tnom = 27 C
    tempeffects = all
    errpreset = moderate
    method = traponly
    lteratio = 3.5
    relref = sigglobal
    cmin = 0 F
    gmin = 1 pS


Output and IC/nodeset summary:
                 probe  2       
                 save   3       (current)
                 save   683     (voltage)

......9......8......7......6.....

Notice from spectre at time = 972.564 ps during transient analysis
        `transient14'.
    Found trapezoidal ringing on node VVDD:p.

......9......8......7......6......

Notice from spectre at time = 1.01256 ns during transient analysis
        `transient14'.
    Found trapezoidal ringing on node VVDD:p.

......9......8......7......6......5

Notice from spectre at time = 1.05256 ns during transient analysis
        `transient14'.
    Found trapezoidal ringing on node VVDD:p.

......9......8......7......6......5..

Notice from spectre at time = 1.09256 ns during transient analysis
        `transient14'.
    Found trapezoidal ringing on node VVDD:p.

......9......8......7......6......5...

Notice from spectre at time = 1.12378 ns during transient analysis
        `transient14'.
    Found trapezoidal ringing on node VVDD:p.
        Further occurrences of this notice will be suppressed (except in log
        file).

......9......8......7......6......5......4......3......2......1......0
Number of accepted tran steps =             287

Notice from spectre during transient analysis `transient14'.
    Trapezoidal ringing is detected during tran analysis.
        Please use method=trap for better results and performance.


Maximum value achieved for any signal of each quantity: 
V: V(nfanout4_10.ncell12.1:Q) = 1.389 V
I: I(VVDD:p) = 251.6 uA
If your circuit contains signals of the same quantity that are vastly different
        in size (such as high voltage circuitry combined with low voltage
        control circuitry), you should consider specifying global option
        `bin_relref=yes'.

~~~~~~~~~~~~~~~~~~~~~~~~~~~~~~~~~
Post-Transient Simulation Summary
~~~~~~~~~~~~~~~~~~~~~~~~~~~~~~~~~
   -   To further speed up simulation, consider
          add ++aps on command line
~~~~~~~~~~~~~~~~~~~~~~~~~~~~~~~~~


During simulation, the CPU load for active processors is :
         0 (63.8 %)      1 (29.3 %)      2 (49.5 %)      3 (64.9 %)
         4 (100.0 %)     5 (28.1 %)      6 (57.1 %)      7 (61.8 %)
         8 (44.9 %)      9 (42.3 %)     10 (46.7 %)     11 (46.6 %)
        Total: 635.1%
Initial condition solution time: CPU = 18.989 ms, elapsed = 19.3632 ms.
Intrinsic tran analysis time:    CPU = 802.443 ms, elapsed = 974.121 ms.
Opening mt file: 
        /CASNFSHOME2/home/sstatthoudakis/Documents/spectre/Gates/NAND2/corners/corner_pin1/gate_load/nand_ff.mt13
Total time required for tran analysis `transient14': CPU = 829.567 ms, elapsed
        = 1.01897 s, util. = 81.4%.
Time accumulated: CPU = 12.3151 s, elapsed = 19.1943 s.
Peak resident memory used = 150 Mbytes.


Notice from spectre.
    1 notice suppressed.


**************************
Alter Group `altergroup14'
**************************
Time for altergroup14: CPU = 26.008 ms, elapsed = 27.4129 ms.
Time accumulated: CPU = 12.3415 s, elapsed = 19.2236 s.
Peak resident memory used = 150 Mbytes.


******************************************************
Transient Analysis `transient15': time = (0 s -> 2 ns)
******************************************************
DC simulation time: CPU = 21.228 ms, elapsed = 21.2312 ms.

Notice from spectre during transient analysis `transient15'.
    No outputs were found. Loosening output filter criterion to `allpub'.


Opening the PSFXL file ./nand_ff.raw/transient15.tran.tran ...
Important parameter values:
    start = 0 s
    outputstart = 0 s
    stop = 2 ns
    step = 100 fs
    maxstep = 40 ps
    ic = all
    useprevic = no
    skipdc = no
    reltol = 1e-03
    abstol(V) = 1 uV
    abstol(I) = 1 pA
    temp = 125 C
    tnom = 27 C
    tempeffects = all
    errpreset = moderate
    method = traponly
    lteratio = 3.5
    relref = sigglobal
    cmin = 0 F
    gmin = 1 pS


Output and IC/nodeset summary:
                 probe  2       
                 save   3       (current)
                 save   683     (voltage)

......9......8......7......6......

Notice from spectre at time = 1.01608 ns during transient analysis
        `transient15'.
    Found trapezoidal ringing on node VGND:p.

......9......8......7......6......5.

Notice from spectre at time = 1.05608 ns during transient analysis
        `transient15'.
    Found trapezoidal ringing on node VGND:p.

......9......8......7......6......5..

Notice from spectre at time = 1.09608 ns during transient analysis
        `transient15'.
    Found trapezoidal ringing on node VGND:p.

......9......8......7......6......5...

Notice from spectre at time = 1.12554 ns during transient analysis
        `transient15'.
    Found trapezoidal ringing on node VGND:p.

......9......8......7......6......5....

Notice from spectre at time = 1.155 ns during transient analysis
        `transient15'.
    Found trapezoidal ringing on node VGND:p.
        Further occurrences of this notice will be suppressed (except in log
        file).

......9......8......7......6......5......4......3......2......1......0
Number of accepted tran steps =             287

Notice from spectre during transient analysis `transient15'.
    Trapezoidal ringing is detected during tran analysis.
        Please use method=trap for better results and performance.


Maximum value achieved for any signal of each quantity: 
V: V(nfanout4_10.ncell13.2:Q) = 1.383 V
I: I(VGND:p) = 251 uA
If your circuit contains signals of the same quantity that are vastly different
        in size (such as high voltage circuitry combined with low voltage
        control circuitry), you should consider specifying global option
        `bin_relref=yes'.

~~~~~~~~~~~~~~~~~~~~~~~~~~~~~~~~~
Post-Transient Simulation Summary
~~~~~~~~~~~~~~~~~~~~~~~~~~~~~~~~~
   -   To further speed up simulation, consider
          add ++aps on command line
~~~~~~~~~~~~~~~~~~~~~~~~~~~~~~~~~


During simulation, the CPU load for active processors is :
         0 (62.0 %)      1 (29.4 %)      2 (46.4 %)      3 (67.4 %)
         4 (100.0 %)     5 (26.4 %)      6 (53.6 %)      7 (60.3 %)
         8 (48.8 %)      9 (46.4 %)     10 (43.8 %)     11 (43.6 %)
        Total: 627.9%
Initial condition solution time: CPU = 21.338 ms, elapsed = 22.1901 ms.
Intrinsic tran analysis time:    CPU = 893.956 ms, elapsed = 1.12987 s.
Opening mt file: 
        /CASNFSHOME2/home/sstatthoudakis/Documents/spectre/Gates/NAND2/corners/corner_pin1/gate_load/nand_ff.mt14
Total time required for tran analysis `transient15': CPU = 927.504 ms, elapsed
        = 1.18861 s, util. = 78%.
Time accumulated: CPU = 13.2908 s, elapsed = 20.5798 s.
Peak resident memory used = 150 Mbytes.

Licensing Information:
Lic Summary:
[15:48:04.199353] Cdslmd servers:5280@10.64.82.10
[15:48:04.199387] Feature usage summary:
[15:48:04.199387] Virtuoso_Multi_mode_Simulation


Aggregate audit (3:48:04 PM, Wed Oct 29, 2025):
Time used: CPU = 13.3 s, elapsed = 20.6 s, util. = 64.6%.
Time spent in licensing: elapsed = 32.4 ms.
Peak memory used = 150 Mbytes.
Simulation started at: 3:47:44 PM, Wed Oct 29, 2025, ended at: 3:48:04 PM, Wed
        Oct 29, 2025, with elapsed time (wall clock): 20.6 s.
spectre completes with 0 errors, 12 warnings, and 50 notices.
