
Spectre (R) Circuit Simulator
Version 23.1.0.242.isr1 64bit -- 7 Sep 2023
Copyright (C) 1989-2023 Cadence Design Systems, Inc. All rights reserved worldwide. Cadence and Spectre are registered trademarks of Cadence Design Systems, Inc. All others are the property of their respective holders.

Includes RSA BSAFE(R) Cryptographic or Security Protocol Software from RSA Security, Inc.

User: sstatthoudakis   Host: torreyridge   HostID: 7F0100   PID: 29975
Memory  available: 104.5412 GB  physical: 135.0278 GB
Linux   : CentOS Linux release 7 (Core)
CPU Type: Intel(R) Xeon(R) Silver 4114 CPU @ 2.20GHz
All processors running at 2194.8 MHz
        Socket: Processors
        0:       0
        2:       1
        4:       2
        6:       3
        8:       4
        10:      5
        12:      6
        14:      7
        16:      8
        18:      9
        20:     10
        22:     11
        
System load averages (1min, 5min, 15min) : 26.0 %, 25.8 %, 23.5 %
This is a virtual machine


Simulating `nor_ff.scs' on torreyridge at 2:39:03 PM, Wed Oct 29, 2025 (process id: 29975).
Current working directory: /CASNFSHOME2/home/sstatthoudakis/Documents/spectre/Gates/NOR2/nor_validate/corners/corner_pin2/gate_load
Command line:
     \
        /CASNFSHOME/home/edatools/cadence/2023-24/RHELx86/SPECTRE_23.10.242/tools.lnx86/bin/spectre  \
        -64 nor_ff.scs

Licensing Information:
[14:39:03.231841] Configured Lic search path (22.01-s002): 5280@10.64.82.10

Licensing Information:
[14:39:04.015673] Periodic Lic check successful

Loading /CASNFSHOME/home/edatools/cadence/2023-24/RHELx86/SPECTRE_23.10.242/tools.lnx86/cmi/lib/64bit/5.0/libinfineon_sh.so ...
Loading /CASNFSHOME/home/edatools/cadence/2023-24/RHELx86/SPECTRE_23.10.242/tools.lnx86/cmi/lib/64bit/5.0/libphilips_I_sh.so ...
Loading /CASNFSHOME/home/edatools/cadence/2023-24/RHELx86/SPECTRE_23.10.242/tools.lnx86/cmi/lib/64bit/5.0/libphilips_sh.so ...
Loading /CASNFSHOME/home/edatools/cadence/2023-24/RHELx86/SPECTRE_23.10.242/tools.lnx86/cmi/lib/64bit/5.0/libsparam_sh.so ...
Loading /CASNFSHOME/home/edatools/cadence/2023-24/RHELx86/SPECTRE_23.10.242/tools.lnx86/cmi/lib/64bit/5.0/libstmodels_sh.so ...
Reading file:  /CASNFSHOME2/home/sstatthoudakis/Documents/spectre/Gates/NOR2/nor_validate/corners/corner_pin2/gate_load/nor_ff.scs
Reading file:  /CASNFSHOME/home/edatools/cadence/2023-24/RHELx86/SPECTRE_23.10.242/tools.lnx86/spectre/etc/configs/spectre.cfg
Reading file:  /CASNFSHOME/home/tsaikaterini/IHP/IHP_Generation_files/130ng/ihp013ng_include_all_fast.scs
Reading file:  /CASNFSHOME/home/tsaikaterini/IHP/IHP_Generation_files/130ng/SG13S_618_rev1.12.15/tech/SG13_HBT/VBIC/spectre/SG13_cornerBIP.scs
Reading file:  /CASNFSHOME/home/tsaikaterini/IHP/IHP_Generation_files/130ng/SG13S_618_rev1.12.15/tech/SG13_HBT/VBIC/spectre/SG13_hbt_mm.scs
Reading file:  /CASNFSHOME/home/tsaikaterini/IHP/IHP_Generation_files/130ng/SG13S_618_rev1.12.15/tech/SG13_HBT/VBIC/spectre/SG13_hbt.lib
Reading file:  /CASNFSHOME/home/tsaikaterini/IHP/IHP_Generation_files/130ng/SG13S_618_rev1.12.15/tech/SG13_HBT/VBIC/spectre/SG13_hbt_stat.scs
Reading file:  /CASNFSHOME/home/tsaikaterini/IHP/IHP_Generation_files/130ng/SG13S_618_rev1.12.15/tech/SG13_MOS/library/spectre/cornerMOSlv_psp.scs
Reading file:  /CASNFSHOME/home/tsaikaterini/IHP/IHP_Generation_files/130ng/SG13S_618_rev1.12.15/tech/SG13_MOS/library/spectre/sg13_moslv_psp_stat.scs
Reading file:  /CASNFSHOME/home/tsaikaterini/IHP/IHP_Generation_files/130ng/SG13S_618_rev1.12.15/tech/SG13_MOS/library/spectre/sg13_moslv_psp_mod.lib
Reading file:  /CASNFSHOME/home/tsaikaterini/IHP/IHP_Generation_files/130ng/SG13S_618_rev1.12.15/tech/SG13_MOS/library/spectre/sg13_moslv_psp_parm.scs
Reading file:  /CASNFSHOME/home/tsaikaterini/IHP/IHP_Generation_files/130ng/SG13S_618_rev1.12.15/tech/SG13_MOS/library/spectre/cornerMOShv_psp.scs
Reading file:  /CASNFSHOME/home/tsaikaterini/IHP/IHP_Generation_files/130ng/SG13S_618_rev1.12.15/tech/SG13_MOS/library/spectre/sg13_moshv_psp_stat.scs
Reading file:  /CASNFSHOME/home/tsaikaterini/IHP/IHP_Generation_files/130ng/SG13S_618_rev1.12.15/tech/SG13_MOS/library/spectre/sg13_moshv_psp_mod.lib
Reading file:  /CASNFSHOME/home/tsaikaterini/IHP/IHP_Generation_files/130ng/SG13S_618_rev1.12.15/tech/SG13_MOS/library/spectre/sg13_moshv_psp_parm.scs

Warning from spectre in `nmoselt', during circuit read-in.
    WARNING (SFE-2296): "/CASNFSHOME/home/tsaikaterini/IHP/IHP_Generation_files/130ng/SG13S_618_rev1.12.15/tech/SG13_MOS/library/spectre/sg13_moshv_psp_mod.lib" 79: The inline subckt definition `nmoselt' does not contain any inline components. The `inline' qualifier will therefore be ignored.

Reading file:  /CASNFSHOME/home/tsaikaterini/IHP/IHP_Generation_files/130ng/SG13S_618_rev1.12.15/tech/SG13_MOS/library/spectre/sg13_svaricaphv_mosvar_mod.lib
Reading file:  /CASNFSHOME/home/tsaikaterini/IHP/IHP_Generation_files/130ng/SG13S_618_rev1.12.15/tech/SG13_PASSIVES/spectre/SG13_cornerRES.scs
Reading file:  /CASNFSHOME/home/tsaikaterini/IHP/IHP_Generation_files/130ng/SG13S_618_rev1.12.15/tech/SG13_PASSIVES/spectre/SG13_res_mm.scs
Reading file:  /CASNFSHOME/home/tsaikaterini/IHP/IHP_Generation_files/130ng/SG13S_618_rev1.12.15/tech/SG13_PASSIVES/spectre/SG13_res_stat.scs
Reading file:  /CASNFSHOME/home/tsaikaterini/IHP/IHP_Generation_files/130ng/SG13S_618_rev1.12.15/tech/SG13_PASSIVES/spectre/SG13_res.lib
Reading file:  /CASNFSHOME/home/tsaikaterini/IHP/IHP_Generation_files/130ng/SG13S_618_rev1.12.15/tech/SG13_PASSIVES/spectre/SG13_cornerCAP.scs
Reading file:  /CASNFSHOME/home/tsaikaterini/IHP/IHP_Generation_files/130ng/SG13S_618_rev1.12.15/tech/SG13_PASSIVES/spectre/SG13_cap_mm.scs
Reading file:  /CASNFSHOME/home/tsaikaterini/IHP/IHP_Generation_files/130ng/SG13S_618_rev1.12.15/tech/SG13_PASSIVES/spectre/SG13_cap_stat.scs
Reading file:  /CASNFSHOME/home/tsaikaterini/IHP/IHP_Generation_files/130ng/SG13S_618_rev1.12.15/tech/SG13_PASSIVES/spectre/SG13_cap.lib
Reading file:  /CASNFSHOME/home/tsaikaterini/IHP/IHP_Generation_files/130ng/SG13S_618_rev1.12.15/tech/SG13_PASSIVES/spectre/Ind_unit_4PI
Reading file:  /CASNFSHOME/home/tsaikaterini/IHP/IHP_Generation_files/130ng/SG13S_618_rev1.12.15/tech/SG13_PASSIVES/spectre/Parameters_define_4PI
Reading file:  /CASNFSHOME/home/tsaikaterini/IHP/IHP_Generation_files/130ng/SG13S_618_rev1.12.15/tech/SG13_PASSIVES/spectre/sg13s_dschottky_nbl1_mod.lib
Reading file:  /CASNFSHOME/home/tsaikaterini/IHP/IHP_Generation_files/130ng/SG13S_618_rev1.12.15/tech/SG13_PASSIVES/spectre/SG13_diodes.lib
Reading file:  /CASNFSHOME/home/tsaikaterini/IHP/IHP_Generation_files/130ng/SG13S_618_rev1.12.15/tech/SG13_MOS/library/spectre/CheckMOSstat.scs
Reading file:  /CASNFSHOME/home/tsaikaterini/IHP/IHP_Generation_files/130ng/SG13S_618_rev1.12.15/tech/SG13_MOS/library/spectre/CheckMOSdyn.scs
Reading file:  /CASNFSHOME/home/tsaikaterini/IHP/IHP_Generation_files/130ng/SG13S_618_rev1.12.15/tech/SG13_ESD/spectre/SG13_esd.lib
Reading file:  /CASNFSHOME/home/tsaikaterini/IHP/IHP_Generation_files/130ng/SG13S_618_rev1.12.15/tech/SG13_PASSIVES/spectre/SG13_cornerTSV.scs
Reading file:  /CASNFSHOME/home/tsaikaterini/IHP/IHP_Generation_files/130ng/SG13S_618_rev1.12.15/tech/SG13_PASSIVES/spectre/SG13_paramsTSV.scs
Reading file:  /CASNFSHOME/home/tsaikaterini/IHP/IHP_Generation_files/130ng/SG13S_618_rev1.12.15/tech/SG13_PASSIVES/spectre/SG13_tsv.lib
Reading file:  /CASNFSHOME/home/tsaikaterini/IHP/IHP_Generation_files/130ng/ixc013ng_stdcell_rc.scs
Time for NDB Parsing: CPU = 609.705 ms, elapsed = 718.898 ms.
Time accumulated: CPU = 711.356 ms, elapsed = 718.901 ms.
Peak resident memory used = 111 Mbytes.


Warning from spectre in `NO2JIX0':`nor1', during hierarchy flattening.
    WARNING (SFE-103): "/CASNFSHOME/home/tsaikaterini/IHP/IHP_Generation_files/130ng/ixc013ng_stdcell_rc.scs" 28325: Subcircuit parameter `nrd', defined for subcircuit `sg13_lv_pmos', has been ignored because it is invalid. Check the parameters that are defined for the instantiated subcircuit and rerun the simulation.
    WARNING (SFE-103): "/CASNFSHOME/home/tsaikaterini/IHP/IHP_Generation_files/130ng/ixc013ng_stdcell_rc.scs" 28325: Subcircuit parameter `nrs', defined for subcircuit `sg13_lv_pmos', has been ignored because it is invalid. Check the parameters that are defined for the instantiated subcircuit and rerun the simulation.
    WARNING (SFE-103): "/CASNFSHOME/home/tsaikaterini/IHP/IHP_Generation_files/130ng/ixc013ng_stdcell_rc.scs" 28328: Subcircuit parameter `nrd', defined for subcircuit `sg13_lv_pmos', has been ignored because it is invalid. Check the parameters that are defined for the instantiated subcircuit and rerun the simulation.
    WARNING (SFE-103): "/CASNFSHOME/home/tsaikaterini/IHP/IHP_Generation_files/130ng/ixc013ng_stdcell_rc.scs" 28328: Subcircuit parameter `nrs', defined for subcircuit `sg13_lv_pmos', has been ignored because it is invalid. Check the parameters that are defined for the instantiated subcircuit and rerun the simulation.
    WARNING (SFE-103): "/CASNFSHOME/home/tsaikaterini/IHP/IHP_Generation_files/130ng/ixc013ng_stdcell_rc.scs" 28330: Subcircuit parameter `nrd', defined for subcircuit `sg13_lv_nmos', has been ignored because it is invalid. Check the parameters that are defined for the instantiated subcircuit and rerun the simulation.
        Further occurrences of this warning will be suppressed.

Time for Elaboration: CPU = 44.792 ms, elapsed = 49.3791 ms.
Time accumulated: CPU = 756.355 ms, elapsed = 770.382 ms.
Peak resident memory used = 120 Mbytes.


Notice from spectre in `NO2JIX0':`nor1', during hierarchy flattening.
    nor1.c5: Terminals are connected together (to node `VSS').
Notice from spectre in `NO2JIX0':`nor2', during hierarchy flattening.
    nor2.c5: Terminals are connected together (to node `VSS').
Notice from spectre in `NO2JIX0':`nor3', during hierarchy flattening.
    nor3.c5: Terminals are connected together (to node `VSS').
Notice from spectre in `NO2JIX0':`nor4', during hierarchy flattening.
    nor4.c5: Terminals are connected together (to node `VSS').
Notice from spectre in `NO2JIX0':`nor5', during hierarchy flattening.
    nor5.c5: Terminals are connected together (to node `VSS').
        Further occurrences of this notice will be suppressed.

Loading /CASNFSHOME/home/edatools/cadence/2023-24/RHELx86/SPECTRE_23.10.242/tools.lnx86/mdl/lib/64bit/libSpectreEH_sh.so ...

Time for EDB Visiting: CPU = 45.008 ms, elapsed = 53.1731 ms.
Time accumulated: CPU = 801.595 ms, elapsed = 825.458 ms.
Peak resident memory used = 129 Mbytes.


Warning from spectre during initial setup.
    WARNING (SPECTRE-17237): Assert violations will be written to the sqldb file because the 'checklimitdest' option has not been specified.
    WARNING (SPECTRE-17607): Assert `check_sg13s_lv_nmosHV_vgs' is ignored because it contains an expression which is not supported by native evaluator. 
    WARNING (SPECTRE-17607): Assert `check_sg13s_lv_nmosHV_vgd' is ignored because it contains an expression which is not supported by native evaluator. 
    WARNING (SPECTRE-17607): Assert `check_sg13s_lv_nmosHV_vds' is ignored because it contains an expression which is not supported by native evaluator. 
    WARNING (SPECTRE-17607): Assert `check_sg13s_lv_nmosHV_vdb' is ignored because it contains an expression which is not supported by native evaluator. 
    WARNING (SPECTRE-17607): Assert `check_sg13s_lv_nmosHV_vgb' is ignored because it contains an expression which is not supported by native evaluator. 
        Further occurrences of this warning will be suppressed.


Global user options:
               temp = 0

Scoped user options:

Circuit inventory:
              nodes 563
          capacitor 680   
          pspnqs103 160   
           resistor 480   
            vsource 3     

Analysis and control statement inventory:
         altergroup 146   
               tran 147   

Output statements:
             .probe 0     
           .measure 3     
               save 0     

Design checks inventory:
          paramtest 640   
             assert 40    


Notice from spectre.
    35 notices suppressed.
    322 warnings suppressed.

Time for parsing: CPU = 35.174 ms, elapsed = 435.891 ms.
Time accumulated: CPU = 836.98 ms, elapsed = 1.26356 s.
Peak resident memory used = 133 Mbytes.

~~~~~~~~~~~~~~~~~~~~~~
Pre-Simulation Summary
~~~~~~~~~~~~~~~~~~~~~~
~~~~~~~~~~~~~~~~~~~~~~

Notice from spectre during transient analysis `transient1'.
    No checklimit analysis defined for asserts. A default checklimit analysis 'SpectreChecklimitAnal' has been created with all asserts enabled.


*****************************************************
Transient Analysis `transient1': time = (0 s -> 2 ns)
*****************************************************

Notice from spectre during IC analysis `timeSweep', during transient analysis `transient1'.
    GminDC = 1 pS is large enough to noticeably affect the DC solution.
        dV(nor2.net16) = 2.00037 mV
        Use the `gmin_check' option to eliminate or expand this report.

DC simulation time: CPU = 24.149 ms, elapsed = 26.1521 ms.

Notice from spectre during transient analysis `transient1'.
    No outputs were found. Loosening output filter criterion to `allpub'.


Opening the PSFXL file ./nor_ff.raw/transient1.tran.tran ...
Important parameter values:
    start = 0 s
    outputstart = 0 s
    stop = 2 ns
    step = 100 fs
    maxstep = 40 ps
    ic = all
    useprevic = no
    skipdc = no
    reltol = 1e-03
    abstol(V) = 1 uV
    abstol(I) = 1 pA
    temp = 0 C
    tnom = 27 C
    tempeffects = all
    errpreset = moderate
    method = traponly
    lteratio = 3.5
    relref = sigglobal
    cmin = 0 F
    gmin = 1 pS


Output and IC/nodeset summary:
                 probe  2       
                 save   3       (current)
                 save   563     (voltage)

......9......8......7......6......5......4......3......2......1......0
Number of accepted tran steps =             255

Maximum value achieved for any signal of each quantity: 
V: V(nor10_fanout4.nor13.net16) = 986.3 mV
I: I(VVDD:p) = 147.6 uA
If your circuit contains signals of the same quantity that are vastly different in size (such as high voltage circuitry combined with low voltage control circuitry), you should consider specifying global option `bin_relref=yes'.

~~~~~~~~~~~~~~~~~~~~~~~~~~~~~~~~~
Post-Transient Simulation Summary
~~~~~~~~~~~~~~~~~~~~~~~~~~~~~~~~~
   -   To further speed up simulation, consider
          add ++aps on command line
~~~~~~~~~~~~~~~~~~~~~~~~~~~~~~~~~


During simulation, the CPU load for active processors is :
         0 (1.9 %)       1 (78.3 %)      2 (4.3 %)       3 (100.0 %)
         5 (7.2 %)       6 (100.0 %)     7 (4.3 %)       8 (7.6 %)
         9 (1.4 %)      10 (7.2 %)      
        Total: 312.7%
Initial condition solution time: CPU = 24.249 ms, elapsed = 26.597 ms.
Intrinsic tran analysis time:    CPU = 729.715 ms, elapsed = 796.087 ms.
Opening measure  file:  /CASNFSHOME2/home/sstatthoudakis/Documents/spectre/Gates/NOR2/nor_validate/corners/corner_pin2/gate_load/nor_ff.measure
Opening mt file:  /CASNFSHOME2/home/sstatthoudakis/Documents/spectre/Gates/NOR2/nor_validate/corners/corner_pin2/gate_load/nor_ff.mt0
Total time required for tran analysis `transient1': CPU = 834.728 ms, elapsed = 1.0403 s, util. = 80.2%.
Time accumulated: CPU = 1.70656 s, elapsed = 2.41491 s.
Peak resident memory used = 146 Mbytes.


*************************
Alter Group `altergroup1'
*************************
Time for altergroup1: CPU = 26.051 ms, elapsed = 26.618 ms.
Time accumulated: CPU = 1.73284 s, elapsed = 2.44366 s.
Peak resident memory used = 146 Mbytes.


*****************************************************
Transient Analysis `transient2': time = (0 s -> 2 ns)
*****************************************************

Notice from spectre during IC analysis `timeSweep_cloned_1', during transient analysis `transient2'.
    GminDC = 1 pS is large enough to noticeably affect the DC solution.
        dV(nor6.net16) = 252.864 uV
        Use the `gmin_check' option to eliminate or expand this report.

DC simulation time: CPU = 12.072 ms, elapsed = 13.552 ms.

Notice from spectre during transient analysis `transient2'.
    No outputs were found. Loosening output filter criterion to `allpub'.


Opening the PSFXL file ./nor_ff.raw/transient2.tran.tran ...
Important parameter values:
    start = 0 s
    outputstart = 0 s
    stop = 2 ns
    step = 100 fs
    maxstep = 40 ps
    ic = all
    useprevic = no
    skipdc = no
    reltol = 1e-03
    abstol(V) = 1 uV
    abstol(I) = 1 pA
    temp = 50 C
    tnom = 27 C
    tempeffects = all
    errpreset = moderate
    method = traponly
    lteratio = 3.5
    relref = sigglobal
    cmin = 0 F
    gmin = 1 pS


Output and IC/nodeset summary:
                 probe  2       
                 save   3       (current)
                 save   563     (voltage)

......9......8......7......6......5......4......3......2......1......0
Number of accepted tran steps =             231

Maximum value achieved for any signal of each quantity: 
V: V(nor10_fanout4.nor13.2:Q) = 982.9 mV
I: I(VVDD:p) = 147.4 uA
If your circuit contains signals of the same quantity that are vastly different in size (such as high voltage circuitry combined with low voltage control circuitry), you should consider specifying global option `bin_relref=yes'.

~~~~~~~~~~~~~~~~~~~~~~~~~~~~~~~~~
Post-Transient Simulation Summary
~~~~~~~~~~~~~~~~~~~~~~~~~~~~~~~~~
   -   To further speed up simulation, consider
          add ++aps on command line
~~~~~~~~~~~~~~~~~~~~~~~~~~~~~~~~~


During simulation, the CPU load for active processors is :
         0 (1.9 %)       1 (76.7 %)      2 (3.2 %)       3 (100.0 %)
         4 (5.8 %)       5 (5.2 %)       6 (100.0 %)     7 (3.5 %)
         8 (6.8 %)       9 (1.6 %)      10 (6.1 %)      
        Total: 311.2%
Initial condition solution time: CPU = 12.158 ms, elapsed = 14.02 ms.
Intrinsic tran analysis time:    CPU = 601.615 ms, elapsed = 658.137 ms.
Opening mt file:  /CASNFSHOME2/home/sstatthoudakis/Documents/spectre/Gates/NOR2/nor_validate/corners/corner_pin2/gate_load/nor_ff.mt1
Total time required for tran analysis `transient2': CPU = 621.135 ms, elapsed = 724.631 ms, util. = 85.7%.
Time accumulated: CPU = 2.36782 s, elapsed = 3.24826 s.
Peak resident memory used = 146 Mbytes.


*************************
Alter Group `altergroup2'
*************************
Time for altergroup2: CPU = 20.578 ms, elapsed = 21.1461 ms.
Time accumulated: CPU = 2.38852 s, elapsed = 3.2712 s.
Peak resident memory used = 146 Mbytes.


*****************************************************
Transient Analysis `transient3': time = (0 s -> 2 ns)
*****************************************************
DC simulation time: CPU = 12.789 ms, elapsed = 12.7909 ms.

Notice from spectre during transient analysis `transient3'.
    No outputs were found. Loosening output filter criterion to `allpub'.


Opening the PSFXL file ./nor_ff.raw/transient3.tran.tran ...
Important parameter values:
    start = 0 s
    outputstart = 0 s
    stop = 2 ns
    step = 100 fs
    maxstep = 40 ps
    ic = all
    useprevic = no
    skipdc = no
    reltol = 1e-03
    abstol(V) = 1 uV
    abstol(I) = 1 pA
    temp = 125 C
    tnom = 27 C
    tempeffects = all
    errpreset = moderate
    method = traponly
    lteratio = 3.5
    relref = sigglobal
    cmin = 0 F
    gmin = 1 pS


Output and IC/nodeset summary:
                 probe  2       
                 save   3       (current)
                 save   563     (voltage)

......9......8......7......6......5.....

Notice from spectre at time = 1.155 ns during transient analysis `transient3'.
    Found trapezoidal ringing on node nor8.3:A.

......9......8......7......6......5......4......3......2......1......0
Number of accepted tran steps =             221

Notice from spectre during transient analysis `transient3'.
    Trapezoidal ringing is detected during tran analysis.
        Please use method=trap for better results and performance.


Maximum value achieved for any signal of each quantity: 
V: V(nor10_fanout4.nor13.2:Q) = 978.8 mV
I: I(VVDD:p) = 141 uA
If your circuit contains signals of the same quantity that are vastly different in size (such as high voltage circuitry combined with low voltage control circuitry), you should consider specifying global option `bin_relref=yes'.

~~~~~~~~~~~~~~~~~~~~~~~~~~~~~~~~~
Post-Transient Simulation Summary
~~~~~~~~~~~~~~~~~~~~~~~~~~~~~~~~~
   -   To further speed up simulation, consider
          add ++aps on command line
~~~~~~~~~~~~~~~~~~~~~~~~~~~~~~~~~


During simulation, the CPU load for active processors is :
         0 (18.0 %)      1 (61.1 %)      2 (2.8 %)       3 (100.0 %)
         4 (7.1 %)       5 (4.6 %)       6 (100.0 %)     7 (4.8 %)
         8 (6.3 %)       9 (1.3 %)      10 (5.3 %)      
        Total: 311.9%
Initial condition solution time: CPU = 12.88 ms, elapsed = 13.3221 ms.
Intrinsic tran analysis time:    CPU = 580.63 ms, elapsed = 661.786 ms.
Opening mt file:  /CASNFSHOME2/home/sstatthoudakis/Documents/spectre/Gates/NOR2/nor_validate/corners/corner_pin2/gate_load/nor_ff.mt2
Total time required for tran analysis `transient3': CPU = 600.217 ms, elapsed = 726.832 ms, util. = 82.6%.
Time accumulated: CPU = 3.00144 s, elapsed = 4.087 s.
Peak resident memory used = 146 Mbytes.


*************************
Alter Group `altergroup3'
*************************
Time for altergroup3: CPU = 18.179 ms, elapsed = 18.769 ms.
Time accumulated: CPU = 3.01974 s, elapsed = 4.10747 s.
Peak resident memory used = 146 Mbytes.


*****************************************************
Transient Analysis `transient4': time = (0 s -> 2 ns)
*****************************************************

Notice from spectre during IC analysis `timeSweep_cloned_3', during transient analysis `transient4'.
    GminDC = 1 pS is large enough to noticeably affect the DC solution.
        dV(nor6.net16) = 1.99909 mV
        Use the `gmin_check' option to eliminate or expand this report.

DC simulation time: CPU = 20.247 ms, elapsed = 22.011 ms.

Notice from spectre during transient analysis `transient4'.
    No outputs were found. Loosening output filter criterion to `allpub'.


Opening the PSFXL file ./nor_ff.raw/transient4.tran.tran ...
Important parameter values:
    start = 0 s
    outputstart = 0 s
    stop = 2 ns
    step = 100 fs
    maxstep = 40 ps
    ic = all
    useprevic = no
    skipdc = no
    reltol = 1e-03
    abstol(V) = 1 uV
    abstol(I) = 1 pA
    temp = 0 C
    tnom = 27 C
    tempeffects = all
    errpreset = moderate
    method = traponly
    lteratio = 3.5
    relref = sigglobal
    cmin = 0 F
    gmin = 1 pS


Output and IC/nodeset summary:
                 probe  2       
                 save   3       (current)
                 save   563     (voltage)

......9......8......7......6......5......4......3......2......1......0
Number of accepted tran steps =             241

Maximum value achieved for any signal of each quantity: 
V: V(nor10_fanout4.nor11.2:Q) = 996.3 mV
I: I(VGND:p) = 151.1 uA
If your circuit contains signals of the same quantity that are vastly different in size (such as high voltage circuitry combined with low voltage control circuitry), you should consider specifying global option `bin_relref=yes'.

~~~~~~~~~~~~~~~~~~~~~~~~~~~~~~~~~
Post-Transient Simulation Summary
~~~~~~~~~~~~~~~~~~~~~~~~~~~~~~~~~
   -   To further speed up simulation, consider
          add ++aps on command line
~~~~~~~~~~~~~~~~~~~~~~~~~~~~~~~~~


During simulation, the CPU load for active processors is :
         0 (17.5 %)      1 (49.8 %)      2 (2.3 %)       3 (100.0 %)
         4 (6.0 %)       5 (4.0 %)       6 (100.0 %)     7 (5.0 %)
         8 (6.0 %)       9 (1.4 %)      10 (16.4 %)     
        Total: 308.8%
Initial condition solution time: CPU = 20.338 ms, elapsed = 22.4831 ms.
Intrinsic tran analysis time:    CPU = 631.12 ms, elapsed = 711.598 ms.
Opening mt file:  /CASNFSHOME2/home/sstatthoudakis/Documents/spectre/Gates/NOR2/nor_validate/corners/corner_pin2/gate_load/nor_ff.mt3
Total time required for tran analysis `transient4': CPU = 660.427 ms, elapsed = 791.176 ms, util. = 83.5%.
Time accumulated: CPU = 3.69512 s, elapsed = 5.00333 s.
Peak resident memory used = 146 Mbytes.


*************************
Alter Group `altergroup4'
*************************
Time for altergroup4: CPU = 29.117 ms, elapsed = 29.7749 ms.
Time accumulated: CPU = 3.72437 s, elapsed = 5.03565 s.
Peak resident memory used = 146 Mbytes.


*****************************************************
Transient Analysis `transient5': time = (0 s -> 2 ns)
*****************************************************

Notice from spectre during IC analysis `timeSweep_cloned_4', during transient analysis `transient5'.
    GminDC = 1 pS is large enough to noticeably affect the DC solution.
        dV(nor6.net16) = 252.793 uV
        Use the `gmin_check' option to eliminate or expand this report.

DC simulation time: CPU = 12.75 ms, elapsed = 14.9741 ms.

Notice from spectre during transient analysis `transient5'.
    No outputs were found. Loosening output filter criterion to `allpub'.


Opening the PSFXL file ./nor_ff.raw/transient5.tran.tran ...
Important parameter values:
    start = 0 s
    outputstart = 0 s
    stop = 2 ns
    step = 100 fs
    maxstep = 40 ps
    ic = all
    useprevic = no
    skipdc = no
    reltol = 1e-03
    abstol(V) = 1 uV
    abstol(I) = 1 pA
    temp = 50 C
    tnom = 27 C
    tempeffects = all
    errpreset = moderate
    method = traponly
    lteratio = 3.5
    relref = sigglobal
    cmin = 0 F
    gmin = 1 pS


Output and IC/nodeset summary:
                 probe  2       
                 save   3       (current)
                 save   563     (voltage)

......9......8......7......6......5......4......3......2......1......0
Number of accepted tran steps =             239

Maximum value achieved for any signal of each quantity: 
V: V(nor10_fanout4.nor11.2:Q) = 993.2 mV
I: I(VVDD:p) = 144.6 uA
If your circuit contains signals of the same quantity that are vastly different in size (such as high voltage circuitry combined with low voltage control circuitry), you should consider specifying global option `bin_relref=yes'.

~~~~~~~~~~~~~~~~~~~~~~~~~~~~~~~~~
Post-Transient Simulation Summary
~~~~~~~~~~~~~~~~~~~~~~~~~~~~~~~~~
   -   To further speed up simulation, consider
          add ++aps on command line
~~~~~~~~~~~~~~~~~~~~~~~~~~~~~~~~~


During simulation, the CPU load for active processors is :
         0 (26.0 %)      1 (42.7 %)      2 (3.3 %)       3 (100.0 %)
         4 (5.2 %)       5 (3.5 %)       6 (100.0 %)     7 (4.7 %)
         8 (7.2 %)       9 (1.7 %)      10 (14.7 %)     
        Total: 309.6%
Initial condition solution time: CPU = 12.809 ms, elapsed = 15.4459 ms.
Intrinsic tran analysis time:    CPU = 615.033 ms, elapsed = 687.669 ms.
Opening mt file:  /CASNFSHOME2/home/sstatthoudakis/Documents/spectre/Gates/NOR2/nor_validate/corners/corner_pin2/gate_load/nor_ff.mt4
Total time required for tran analysis `transient5': CPU = 635.026 ms, elapsed = 756.092 ms, util. = 84%.
Time accumulated: CPU = 4.37363 s, elapsed = 5.87948 s.
Peak resident memory used = 146 Mbytes.


*************************
Alter Group `altergroup5'
*************************
Time for altergroup5: CPU = 19.458 ms, elapsed = 20.0119 ms.
Time accumulated: CPU = 4.39322 s, elapsed = 5.90173 s.
Peak resident memory used = 146 Mbytes.


*****************************************************
Transient Analysis `transient6': time = (0 s -> 2 ns)
*****************************************************
DC simulation time: CPU = 12.615 ms, elapsed = 12.6171 ms.

Notice from spectre during transient analysis `transient6'.
    No outputs were found. Loosening output filter criterion to `allpub'.


Opening the PSFXL file ./nor_ff.raw/transient6.tran.tran ...
Important parameter values:
    start = 0 s
    outputstart = 0 s
    stop = 2 ns
    step = 100 fs
    maxstep = 40 ps
    ic = all
    useprevic = no
    skipdc = no
    reltol = 1e-03
    abstol(V) = 1 uV
    abstol(I) = 1 pA
    temp = 125 C
    tnom = 27 C
    tempeffects = all
    errpreset = moderate
    method = traponly
    lteratio = 3.5
    relref = sigglobal
    cmin = 0 F
    gmin = 1 pS


Output and IC/nodeset summary:
                 probe  2       
                 save   3       (current)
                 save   563     (voltage)

......9......8......7......6..

Notice from spectre at time = 857.788 ps during transient analysis `transient6'.
    Found trapezoidal ringing on node nor6.3:A.
Notice from spectre at time = 861.537 ps during transient analysis `transient6'.
    Found trapezoidal ringing on node nor6.3:A.

......9......8......7......6......5......4......3......2......1......0
Number of accepted tran steps =             220

Notice from spectre during transient analysis `transient6'.
    Trapezoidal ringing is detected during tran analysis.
        Please use method=trap for better results and performance.


Maximum value achieved for any signal of each quantity: 
V: V(nor10_fanout4.nor11.2:Q) = 988.7 mV
I: I(VVDD:p) = 153.3 uA
If your circuit contains signals of the same quantity that are vastly different in size (such as high voltage circuitry combined with low voltage control circuitry), you should consider specifying global option `bin_relref=yes'.

~~~~~~~~~~~~~~~~~~~~~~~~~~~~~~~~~
Post-Transient Simulation Summary
~~~~~~~~~~~~~~~~~~~~~~~~~~~~~~~~~
   -   To further speed up simulation, consider
          add ++aps on command line
~~~~~~~~~~~~~~~~~~~~~~~~~~~~~~~~~


During simulation, the CPU load for active processors is :
         0 (32.5 %)      1 (37.8 %)      2 (4.0 %)       3 (100.0 %)
         4 (5.0 %)       5 (3.4 %)       6 (100.0 %)     7 (4.9 %)
         8 (7.2 %)       9 (2.1 %)      10 (13.0 %)     
        Total: 310.6%
Initial condition solution time: CPU = 12.707 ms, elapsed = 13.4621 ms.
Intrinsic tran analysis time:    CPU = 576.073 ms, elapsed = 640.649 ms.
Opening mt file:  /CASNFSHOME2/home/sstatthoudakis/Documents/spectre/Gates/NOR2/nor_validate/corners/corner_pin2/gate_load/nor_ff.mt5
Total time required for tran analysis `transient6': CPU = 595.59 ms, elapsed = 706.516 ms, util. = 84.3%.
Time accumulated: CPU = 5.00195 s, elapsed = 6.68201 s.
Peak resident memory used = 146 Mbytes.


*************************
Alter Group `altergroup6'
*************************
Time for altergroup6: CPU = 18.314 ms, elapsed = 18.6422 ms.
Time accumulated: CPU = 5.02037 s, elapsed = 6.70193 s.
Peak resident memory used = 146 Mbytes.


*****************************************************
Transient Analysis `transient7': time = (0 s -> 2 ns)
*****************************************************

Notice from spectre during IC analysis `timeSweep_cloned_6', during transient analysis `transient7'.
    GminDC = 1 pS is large enough to noticeably affect the DC solution.
        dV(nor9_fanout4.nor12.net16) = 1.99699 mV
        Use the `gmin_check' option to eliminate or expand this report.

DC simulation time: CPU = 13.685 ms, elapsed = 15.2569 ms.

Notice from spectre during transient analysis `transient7'.
    No outputs were found. Loosening output filter criterion to `allpub'.


Opening the PSFXL file ./nor_ff.raw/transient7.tran.tran ...
Important parameter values:
    start = 0 s
    outputstart = 0 s
    stop = 2 ns
    step = 100 fs
    maxstep = 40 ps
    ic = all
    useprevic = no
    skipdc = no
    reltol = 1e-03
    abstol(V) = 1 uV
    abstol(I) = 1 pA
    temp = 0 C
    tnom = 27 C
    tempeffects = all
    errpreset = moderate
    method = traponly
    lteratio = 3.5
    relref = sigglobal
    cmin = 0 F
    gmin = 1 pS


Output and IC/nodeset summary:
                 probe  2       
                 save   3       (current)
                 save   563     (voltage)

......9......8......7......6......5......4......3......2......1......0
Number of accepted tran steps =             255

Maximum value achieved for any signal of each quantity: 
V: V(nor10_fanout4.nor13.2:Q) = 1.006 V
I: I(VVDD:p) = 161.7 uA
If your circuit contains signals of the same quantity that are vastly different in size (such as high voltage circuitry combined with low voltage control circuitry), you should consider specifying global option `bin_relref=yes'.

~~~~~~~~~~~~~~~~~~~~~~~~~~~~~~~~~
Post-Transient Simulation Summary
~~~~~~~~~~~~~~~~~~~~~~~~~~~~~~~~~
   -   To further speed up simulation, consider
          add ++aps on command line
~~~~~~~~~~~~~~~~~~~~~~~~~~~~~~~~~


During simulation, the CPU load for active processors is :
         0 (38.6 %)      1 (33.2 %)      2 (3.8 %)       3 (100.0 %)
         4 (4.4 %)       5 (3.1 %)       6 (100.0 %)     7 (4.9 %)
         8 (7.0 %)       9 (2.1 %)      10 (11.5 %)     
        Total: 309.2%
Initial condition solution time: CPU = 13.741 ms, elapsed = 15.6791 ms.
Intrinsic tran analysis time:    CPU = 678.948 ms, elapsed = 744.528 ms.
Opening mt file:  /CASNFSHOME2/home/sstatthoudakis/Documents/spectre/Gates/NOR2/nor_validate/corners/corner_pin2/gate_load/nor_ff.mt6
Total time required for tran analysis `transient7': CPU = 699.591 ms, elapsed = 814.239 ms, util. = 85.9%.
Time accumulated: CPU = 5.73451 s, elapsed = 7.60306 s.
Peak resident memory used = 146 Mbytes.


*************************
Alter Group `altergroup7'
*************************
Time for altergroup7: CPU = 18.568 ms, elapsed = 19.0589 ms.
Time accumulated: CPU = 5.75318 s, elapsed = 7.62325 s.
Peak resident memory used = 146 Mbytes.


*****************************************************
Transient Analysis `transient8': time = (0 s -> 2 ns)
*****************************************************

Notice from spectre during IC analysis `timeSweep_cloned_7', during transient analysis `transient8'.
    GminDC = 1 pS is large enough to noticeably affect the DC solution.
        dV(nor6.net16) = 252.575 uV
        Use the `gmin_check' option to eliminate or expand this report.

DC simulation time: CPU = 11.91 ms, elapsed = 13.495 ms.

Notice from spectre during transient analysis `transient8'.
    No outputs were found. Loosening output filter criterion to `allpub'.


Opening the PSFXL file ./nor_ff.raw/transient8.tran.tran ...
Important parameter values:
    start = 0 s
    outputstart = 0 s
    stop = 2 ns
    step = 100 fs
    maxstep = 40 ps
    ic = all
    useprevic = no
    skipdc = no
    reltol = 1e-03
    abstol(V) = 1 uV
    abstol(I) = 1 pA
    temp = 50 C
    tnom = 27 C
    tempeffects = all
    errpreset = moderate
    method = traponly
    lteratio = 3.5
    relref = sigglobal
    cmin = 0 F
    gmin = 1 pS


Output and IC/nodeset summary:
                 probe  2       
                 save   3       (current)
                 save   563     (voltage)

......9......8......7......6......5......4......3......2......1......0
Number of accepted tran steps =             233

Maximum value achieved for any signal of each quantity: 
V: V(nor10_fanout4.nor13.2:Q) = 1.003 V
I: I(VVDD:p) = 156.9 uA
If your circuit contains signals of the same quantity that are vastly different in size (such as high voltage circuitry combined with low voltage control circuitry), you should consider specifying global option `bin_relref=yes'.

~~~~~~~~~~~~~~~~~~~~~~~~~~~~~~~~~
Post-Transient Simulation Summary
~~~~~~~~~~~~~~~~~~~~~~~~~~~~~~~~~
   -   To further speed up simulation, consider
          add ++aps on command line
~~~~~~~~~~~~~~~~~~~~~~~~~~~~~~~~~


During simulation, the CPU load for active processors is :
         0 (40.6 %)      1 (32.0 %)      2 (3.7 %)       3 (100.0 %)
         4 (4.6 %)       5 (3.0 %)       6 (100.0 %)     7 (5.7 %)
         8 (6.7 %)       9 (2.5 %)      10 (10.4 %)     
        Total: 309.9%
Initial condition solution time: CPU = 11.965 ms, elapsed = 13.8199 ms.
Intrinsic tran analysis time:    CPU = 619.376 ms, elapsed = 714.616 ms.
Opening mt file:  /CASNFSHOME2/home/sstatthoudakis/Documents/spectre/Gates/NOR2/nor_validate/corners/corner_pin2/gate_load/nor_ff.mt7
Total time required for tran analysis `transient8': CPU = 638.299 ms, elapsed = 747.927 ms, util. = 85.3%.
Time accumulated: CPU = 6.41544 s, elapsed = 8.4755 s.
Peak resident memory used = 146 Mbytes.


*************************
Alter Group `altergroup8'
*************************
Time for altergroup8: CPU = 25.221 ms, elapsed = 25.779 ms.
Time accumulated: CPU = 6.44096 s, elapsed = 8.50334 s.
Peak resident memory used = 146 Mbytes.


*****************************************************
Transient Analysis `transient9': time = (0 s -> 2 ns)
*****************************************************
DC simulation time: CPU = 15.584 ms, elapsed = 15.5969 ms.

Notice from spectre during transient analysis `transient9'.
    No outputs were found. Loosening output filter criterion to `allpub'.


Opening the PSFXL file ./nor_ff.raw/transient9.tran.tran ...
Important parameter values:
    start = 0 s
    outputstart = 0 s
    stop = 2 ns
    step = 100 fs
    maxstep = 40 ps
    ic = all
    useprevic = no
    skipdc = no
    reltol = 1e-03
    abstol(V) = 1 uV
    abstol(I) = 1 pA
    temp = 125 C
    tnom = 27 C
    tempeffects = all
    errpreset = moderate
    method = traponly
    lteratio = 3.5
    relref = sigglobal
    cmin = 0 F
    gmin = 1 pS


Output and IC/nodeset summary:
                 probe  2       
                 save   3       (current)
                 save   563     (voltage)

......9......8......7......6......5......4......3......2......1......0
Number of accepted tran steps =             221

Maximum value achieved for any signal of each quantity: 
V: V(nor10_fanout4.nor12.2:Q) = 999.2 mV
I: I(VVDD:p) = 156.1 uA
If your circuit contains signals of the same quantity that are vastly different in size (such as high voltage circuitry combined with low voltage control circuitry), you should consider specifying global option `bin_relref=yes'.

~~~~~~~~~~~~~~~~~~~~~~~~~~~~~~~~~
Post-Transient Simulation Summary
~~~~~~~~~~~~~~~~~~~~~~~~~~~~~~~~~
   -   To further speed up simulation, consider
          add ++aps on command line
~~~~~~~~~~~~~~~~~~~~~~~~~~~~~~~~~


During simulation, the CPU load for active processors is :
         0 (37.2 %)      1 (35.2 %)      2 (3.7 %)       3 (100.0 %)
         4 (6.2 %)       5 (5.0 %)       6 (100.0 %)     7 (6.8 %)
         8 (6.9 %)       9 (3.7 %)      10 (9.9 %)      
        Total: 315.5%
Initial condition solution time: CPU = 15.697 ms, elapsed = 16.3431 ms.
Intrinsic tran analysis time:    CPU = 662.252 ms, elapsed = 720.631 ms.
Opening mt file:  /CASNFSHOME2/home/sstatthoudakis/Documents/spectre/Gates/NOR2/nor_validate/corners/corner_pin2/gate_load/nor_ff.mt8
Total time required for tran analysis `transient9': CPU = 685.922 ms, elapsed = 787.917 ms, util. = 87.1%.
Time accumulated: CPU = 7.14032 s, elapsed = 9.36668 s.
Peak resident memory used = 146 Mbytes.


*************************
Alter Group `altergroup9'
*************************
Time for altergroup9: CPU = 19.039 ms, elapsed = 19.371 ms.
Time accumulated: CPU = 7.15948 s, elapsed = 9.3873 s.
Peak resident memory used = 146 Mbytes.


******************************************************
Transient Analysis `transient10': time = (0 s -> 2 ns)
******************************************************

Notice from spectre during IC analysis `timeSweep_cloned_9', during transient analysis `transient10'.
    GminDC = 1 pS is large enough to noticeably affect the DC solution.
        dV(nor9_fanout4.nor12.net16) = 1.99482 mV
        Use the `gmin_check' option to eliminate or expand this report.

DC simulation time: CPU = 15.043 ms, elapsed = 16.417 ms.

Notice from spectre during transient analysis `transient10'.
    No outputs were found. Loosening output filter criterion to `allpub'.


Opening the PSFXL file ./nor_ff.raw/transient10.tran.tran ...
Important parameter values:
    start = 0 s
    outputstart = 0 s
    stop = 2 ns
    step = 100 fs
    maxstep = 40 ps
    ic = all
    useprevic = no
    skipdc = no
    reltol = 1e-03
    abstol(V) = 1 uV
    abstol(I) = 1 pA
    temp = 0 C
    tnom = 27 C
    tempeffects = all
    errpreset = moderate
    method = traponly
    lteratio = 3.5
    relref = sigglobal
    cmin = 0 F
    gmin = 1 pS


Output and IC/nodeset summary:
                 probe  2       
                 save   3       (current)
                 save   563     (voltage)

......9......8......7......6......5......4......3......2......1......0
Number of accepted tran steps =             264

Maximum value achieved for any signal of each quantity: 
V: V(nor10_fanout4.nor13.2:Q) = 1.016 V
I: I(VVDD:p) = 167.1 uA
If your circuit contains signals of the same quantity that are vastly different in size (such as high voltage circuitry combined with low voltage control circuitry), you should consider specifying global option `bin_relref=yes'.

~~~~~~~~~~~~~~~~~~~~~~~~~~~~~~~~~
Post-Transient Simulation Summary
~~~~~~~~~~~~~~~~~~~~~~~~~~~~~~~~~
   -   To further speed up simulation, consider
          add ++aps on command line
~~~~~~~~~~~~~~~~~~~~~~~~~~~~~~~~~


During simulation, the CPU load for active processors is :
         0 (33.8 %)      1 (32.2 %)      2 (3.4 %)       3 (100.0 %)
         4 (6.4 %)       5 (12.2 %)      6 (100.0 %)     7 (7.2 %)
         8 (6.7 %)       9 (3.6 %)      10 (9.1 %)      11 (2.4 %)
        Total: 317.1%
Initial condition solution time: CPU = 15.1 ms, elapsed = 16.7279 ms.
Intrinsic tran analysis time:    CPU = 710.055 ms, elapsed = 769.608 ms.
Opening mt file:  /CASNFSHOME2/home/sstatthoudakis/Documents/spectre/Gates/NOR2/nor_validate/corners/corner_pin2/gate_load/nor_ff.mt9
Total time required for tran analysis `transient10': CPU = 731.868 ms, elapsed = 836.876 ms, util. = 87.5%.
Time accumulated: CPU = 7.90568 s, elapsed = 10.3109 s.
Peak resident memory used = 151 Mbytes.


**************************
Alter Group `altergroup10'
**************************
Time for altergroup10: CPU = 18.116 ms, elapsed = 18.733 ms.
Time accumulated: CPU = 7.9239 s, elapsed = 10.3316 s.
Peak resident memory used = 151 Mbytes.


******************************************************
Transient Analysis `transient11': time = (0 s -> 2 ns)
******************************************************

Notice from spectre during IC analysis `timeSweep_cloned_10', during transient analysis `transient11'.
    GminDC = 1 pS is large enough to noticeably affect the DC solution.
        dV(nor6.net16) = 253.708 uV
        Use the `gmin_check' option to eliminate or expand this report.

DC simulation time: CPU = 13.366 ms, elapsed = 14.739 ms.

Notice from spectre during transient analysis `transient11'.
    No outputs were found. Loosening output filter criterion to `allpub'.


Opening the PSFXL file ./nor_ff.raw/transient11.tran.tran ...
Important parameter values:
    start = 0 s
    outputstart = 0 s
    stop = 2 ns
    step = 100 fs
    maxstep = 40 ps
    ic = all
    useprevic = no
    skipdc = no
    reltol = 1e-03
    abstol(V) = 1 uV
    abstol(I) = 1 pA
    temp = 50 C
    tnom = 27 C
    tempeffects = all
    errpreset = moderate
    method = traponly
    lteratio = 3.5
    relref = sigglobal
    cmin = 0 F
    gmin = 1 pS


Output and IC/nodeset summary:
                 probe  2       
                 save   3       (current)
                 save   563     (voltage)

......9......8......7......6......5......4......3......2......1......0
Number of accepted tran steps =             238

Maximum value achieved for any signal of each quantity: 
V: V(nor10_fanout4.nor13.2:Q) = 1.013 V
I: I(VVDD:p) = 162.4 uA
If your circuit contains signals of the same quantity that are vastly different in size (such as high voltage circuitry combined with low voltage control circuitry), you should consider specifying global option `bin_relref=yes'.

~~~~~~~~~~~~~~~~~~~~~~~~~~~~~~~~~
Post-Transient Simulation Summary
~~~~~~~~~~~~~~~~~~~~~~~~~~~~~~~~~
   -   To further speed up simulation, consider
          add ++aps on command line
~~~~~~~~~~~~~~~~~~~~~~~~~~~~~~~~~


During simulation, the CPU load for active processors is :
         0 (31.2 %)      1 (29.8 %)      2 (3.1 %)       3 (100.0 %)
         4 (6.0 %)       5 (14.6 %)      6 (100.0 %)     7 (7.8 %)
         8 (6.7 %)       9 (4.0 %)      10 (9.0 %)      11 (5.6 %)
        Total: 317.7%
Initial condition solution time: CPU = 13.43 ms, elapsed = 15.1091 ms.
Intrinsic tran analysis time:    CPU = 630.556 ms, elapsed = 692.065 ms.
Opening mt file:  /CASNFSHOME2/home/sstatthoudakis/Documents/spectre/Gates/NOR2/nor_validate/corners/corner_pin2/gate_load/nor_ff.mt10
Total time required for tran analysis `transient11': CPU = 653.499 ms, elapsed = 762.302 ms, util. = 85.7%.
Time accumulated: CPU = 8.61075 s, elapsed = 11.2018 s.
Peak resident memory used = 151 Mbytes.


**************************
Alter Group `altergroup11'
**************************
Time for altergroup11: CPU = 24.146 ms, elapsed = 24.9138 ms.
Time accumulated: CPU = 8.63502 s, elapsed = 11.2282 s.
Peak resident memory used = 151 Mbytes.


******************************************************
Transient Analysis `transient12': time = (0 s -> 2 ns)
******************************************************
DC simulation time: CPU = 14.236 ms, elapsed = 14.302 ms.

Notice from spectre during transient analysis `transient12'.
    No outputs were found. Loosening output filter criterion to `allpub'.


Opening the PSFXL file ./nor_ff.raw/transient12.tran.tran ...
Important parameter values:
    start = 0 s
    outputstart = 0 s
    stop = 2 ns
    step = 100 fs
    maxstep = 40 ps
    ic = all
    useprevic = no
    skipdc = no
    reltol = 1e-03
    abstol(V) = 1 uV
    abstol(I) = 1 pA
    temp = 125 C
    tnom = 27 C
    tempeffects = all
    errpreset = moderate
    method = traponly
    lteratio = 3.5
    relref = sigglobal
    cmin = 0 F
    gmin = 1 pS


Output and IC/nodeset summary:
                 probe  2       
                 save   3       (current)
                 save   563     (voltage)

......9......8......7......6......5......4......3......2......1......0
Number of accepted tran steps =             230

Maximum value achieved for any signal of each quantity: 
V: V(nor10_fanout4.nor13.2:Q) = 1.009 V
I: I(VVDD:p) = 159 uA
If your circuit contains signals of the same quantity that are vastly different in size (such as high voltage circuitry combined with low voltage control circuitry), you should consider specifying global option `bin_relref=yes'.

~~~~~~~~~~~~~~~~~~~~~~~~~~~~~~~~~
Post-Transient Simulation Summary
~~~~~~~~~~~~~~~~~~~~~~~~~~~~~~~~~
   -   To further speed up simulation, consider
          add ++aps on command line
~~~~~~~~~~~~~~~~~~~~~~~~~~~~~~~~~


During simulation, the CPU load for active processors is :
         0 (34.0 %)      1 (27.4 %)      2 (3.0 %)       3 (100.0 %)
         4 (5.8 %)       5 (14.2 %)      6 (100.0 %)     7 (8.0 %)
         8 (7.7 %)       9 (3.8 %)      10 (9.4 %)      11 (5.5 %)
        Total: 318.9%
Initial condition solution time: CPU = 14.324 ms, elapsed = 14.8599 ms.
Intrinsic tran analysis time:    CPU = 684.167 ms, elapsed = 741.284 ms.
Opening mt file:  /CASNFSHOME2/home/sstatthoudakis/Documents/spectre/Gates/NOR2/nor_validate/corners/corner_pin2/gate_load/nor_ff.mt11
Total time required for tran analysis `transient12': CPU = 708.655 ms, elapsed = 806.76 ms, util. = 87.8%.
Time accumulated: CPU = 9.37192 s, elapsed = 12.1337 s.
Peak resident memory used = 151 Mbytes.


**************************
Alter Group `altergroup12'
**************************
Time for altergroup12: CPU = 22.514 ms, elapsed = 23.0088 ms.
Time accumulated: CPU = 9.39457 s, elapsed = 12.1581 s.
Peak resident memory used = 151 Mbytes.


******************************************************
Transient Analysis `transient13': time = (0 s -> 2 ns)
******************************************************

Notice from spectre during IC analysis `timeSweep_cloned_12', during transient analysis `transient13'.
    GminDC = 1 pS is large enough to noticeably affect the DC solution.
        dV(nor6.net16) = 1.99404 mV
        Use the `gmin_check' option to eliminate or expand this report.

DC simulation time: CPU = 18.082 ms, elapsed = 19.8739 ms.

Notice from spectre during transient analysis `transient13'.
    No outputs were found. Loosening output filter criterion to `allpub'.


Opening the PSFXL file ./nor_ff.raw/transient13.tran.tran ...
Important parameter values:
    start = 0 s
    outputstart = 0 s
    stop = 2 ns
    step = 100 fs
    maxstep = 40 ps
    ic = all
    useprevic = no
    skipdc = no
    reltol = 1e-03
    abstol(V) = 1 uV
    abstol(I) = 1 pA
    temp = 0 C
    tnom = 27 C
    tempeffects = all
    errpreset = moderate
    method = traponly
    lteratio = 3.5
    relref = sigglobal
    cmin = 0 F
    gmin = 1 pS


Output and IC/nodeset summary:
                 probe  2       
                 save   3       (current)
                 save   563     (voltage)

......9......8......7......6......5......4......3......2......1......0
Number of accepted tran steps =             265

Maximum value achieved for any signal of each quantity: 
V: V(nor10_fanout4.nor13.2:Q) = 1.026 V
I: I(VVDD:p) = 169.9 uA
If your circuit contains signals of the same quantity that are vastly different in size (such as high voltage circuitry combined with low voltage control circuitry), you should consider specifying global option `bin_relref=yes'.

~~~~~~~~~~~~~~~~~~~~~~~~~~~~~~~~~
Post-Transient Simulation Summary
~~~~~~~~~~~~~~~~~~~~~~~~~~~~~~~~~
   -   To further speed up simulation, consider
          add ++aps on command line
~~~~~~~~~~~~~~~~~~~~~~~~~~~~~~~~~


During simulation, the CPU load for active processors is :
         0 (37.9 %)      1 (25.5 %)      2 (2.9 %)       3 (100.0 %)
         4 (5.3 %)       5 (13.5 %)      6 (100.0 %)     7 (7.9 %)
         8 (7.4 %)       9 (4.2 %)      10 (9.1 %)      11 (5.2 %)
        Total: 319.0%
Initial condition solution time: CPU = 18.19 ms, elapsed = 20.2861 ms.
Intrinsic tran analysis time:    CPU = 747.46 ms, elapsed = 812.795 ms.
Opening mt file:  /CASNFSHOME2/home/sstatthoudakis/Documents/spectre/Gates/NOR2/nor_validate/corners/corner_pin2/gate_load/nor_ff.mt12
Total time required for tran analysis `transient13': CPU = 775.111 ms, elapsed = 882.788 ms, util. = 87.8%.
Time accumulated: CPU = 10.1841 s, elapsed = 13.1309 s.
Peak resident memory used = 151 Mbytes.


**************************
Alter Group `altergroup13'
**************************
Time for altergroup13: CPU = 22.369 ms, elapsed = 22.7652 ms.
Time accumulated: CPU = 10.2066 s, elapsed = 13.155 s.
Peak resident memory used = 151 Mbytes.


******************************************************
Transient Analysis `transient14': time = (0 s -> 2 ns)
******************************************************

Notice from spectre during IC analysis `timeSweep_cloned_13', during transient analysis `transient14'.
    GminDC = 1 pS is large enough to noticeably affect the DC solution.
        dV(nor6.net16) = 253.812 uV
        Use the `gmin_check' option to eliminate or expand this report.

DC simulation time: CPU = 12.856 ms, elapsed = 14.3921 ms.

Notice from spectre during transient analysis `transient14'.
    No outputs were found. Loosening output filter criterion to `allpub'.


Opening the PSFXL file ./nor_ff.raw/transient14.tran.tran ...
Important parameter values:
    start = 0 s
    outputstart = 0 s
    stop = 2 ns
    step = 100 fs
    maxstep = 40 ps
    ic = all
    useprevic = no
    skipdc = no
    reltol = 1e-03
    abstol(V) = 1 uV
    abstol(I) = 1 pA
    temp = 50 C
    tnom = 27 C
    tempeffects = all
    errpreset = moderate
    method = traponly
    lteratio = 3.5
    relref = sigglobal
    cmin = 0 F
    gmin = 1 pS


Output and IC/nodeset summary:
                 probe  2       
                 save   3       (current)
                 save   563     (voltage)

......9......8......7......6......5......4......3......2......1......0
Number of accepted tran steps =             245

Maximum value achieved for any signal of each quantity: 
V: V(nor10_fanout4.nor13.2:Q) = 1.024 V
I: I(VVDD:p) = 167.1 uA
If your circuit contains signals of the same quantity that are vastly different in size (such as high voltage circuitry combined with low voltage control circuitry), you should consider specifying global option `bin_relref=yes'.

~~~~~~~~~~~~~~~~~~~~~~~~~~~~~~~~~
Post-Transient Simulation Summary
~~~~~~~~~~~~~~~~~~~~~~~~~~~~~~~~~
   -   To further speed up simulation, consider
          add ++aps on command line
~~~~~~~~~~~~~~~~~~~~~~~~~~~~~~~~~


During simulation, the CPU load for active processors is :
         0 (40.7 %)      1 (23.9 %)      2 (3.1 %)       3 (100.0 %)
         4 (6.0 %)       5 (12.7 %)      6 (100.0 %)     7 (7.7 %)
         8 (7.9 %)       9 (4.4 %)      10 (9.0 %)      11 (7.3 %)
        Total: 322.6%
Initial condition solution time: CPU = 12.917 ms, elapsed = 14.8141 ms.
Intrinsic tran analysis time:    CPU = 688.643 ms, elapsed = 761.558 ms.
Opening mt file:  /CASNFSHOME2/home/sstatthoudakis/Documents/spectre/Gates/NOR2/nor_validate/corners/corner_pin2/gate_load/nor_ff.mt13
Total time required for tran analysis `transient14': CPU = 708.752 ms, elapsed = 835.023 ms, util. = 84.9%.
Time accumulated: CPU = 10.9294 s, elapsed = 14.0751 s.
Peak resident memory used = 151 Mbytes.


**************************
Alter Group `altergroup14'
**************************
Time for altergroup14: CPU = 18.298 ms, elapsed = 18.8031 ms.
Time accumulated: CPU = 10.9478 s, elapsed = 14.0959 s.
Peak resident memory used = 151 Mbytes.


******************************************************
Transient Analysis `transient15': time = (0 s -> 2 ns)
******************************************************
DC simulation time: CPU = 12.839 ms, elapsed = 12.8429 ms.

Notice from spectre during transient analysis `transient15'.
    No outputs were found. Loosening output filter criterion to `allpub'.


Opening the PSFXL file ./nor_ff.raw/transient15.tran.tran ...
Important parameter values:
    start = 0 s
    outputstart = 0 s
    stop = 2 ns
    step = 100 fs
    maxstep = 40 ps
    ic = all
    useprevic = no
    skipdc = no
    reltol = 1e-03
    abstol(V) = 1 uV
    abstol(I) = 1 pA
    temp = 125 C
    tnom = 27 C
    tempeffects = all
    errpreset = moderate
    method = traponly
    lteratio = 3.5
    relref = sigglobal
    cmin = 0 F
    gmin = 1 pS


Output and IC/nodeset summary:
                 probe  2       
                 save   3       (current)
                 save   563     (voltage)

......9......8......7......6......5......4......3......2......1......0
Number of accepted tran steps =             224

Maximum value achieved for any signal of each quantity: 
V: V(nor10_fanout4.nor13.2:Q) = 1.019 V
I: I(VVDD:p) = 159.7 uA
If your circuit contains signals of the same quantity that are vastly different in size (such as high voltage circuitry combined with low voltage control circuitry), you should consider specifying global option `bin_relref=yes'.

~~~~~~~~~~~~~~~~~~~~~~~~~~~~~~~~~
Post-Transient Simulation Summary
~~~~~~~~~~~~~~~~~~~~~~~~~~~~~~~~~
   -   To further speed up simulation, consider
          add ++aps on command line
~~~~~~~~~~~~~~~~~~~~~~~~~~~~~~~~~


During simulation, the CPU load for active processors is :
         0 (42.8 %)      1 (23.0 %)      2 (3.1 %)       3 (100.0 %)
         4 (5.9 %)       5 (12.1 %)      6 (100.0 %)     7 (7.9 %)
         8 (7.8 %)       9 (7.0 %)      10 (8.9 %)      11 (8.7 %)
        Total: 327.3%
Initial condition solution time: CPU = 12.936 ms, elapsed = 13.3691 ms.
Intrinsic tran analysis time:    CPU = 591.057 ms, elapsed = 659.695 ms.
Opening mt file:  /CASNFSHOME2/home/sstatthoudakis/Documents/spectre/Gates/NOR2/nor_validate/corners/corner_pin2/gate_load/nor_ff.mt14
Total time required for tran analysis `transient15': CPU = 610.65 ms, elapsed = 693.049 ms, util. = 88.1%.
Time accumulated: CPU = 11.5719 s, elapsed = 14.888 s.
Peak resident memory used = 151 Mbytes.


**************************
Alter Group `altergroup15'
**************************
Time for altergroup15: CPU = 20.591 ms, elapsed = 21.0161 ms.
Time accumulated: CPU = 11.5927 s, elapsed = 14.9102 s.
Peak resident memory used = 151 Mbytes.


******************************************************
Transient Analysis `transient16': time = (0 s -> 2 ns)
******************************************************

Notice from spectre during IC analysis `timeSweep_cloned_15', during transient analysis `transient16'.
    GminDC = 1 pS is large enough to noticeably affect the DC solution.
        dV(nor9_fanout4.nor11.net16) = 1.99184 mV
        Use the `gmin_check' option to eliminate or expand this report.

DC simulation time: CPU = 16.746 ms, elapsed = 18.5089 ms.

Notice from spectre during transient analysis `transient16'.
    No outputs were found. Loosening output filter criterion to `allpub'.


Opening the PSFXL file ./nor_ff.raw/transient16.tran.tran ...
Important parameter values:
    start = 0 s
    outputstart = 0 s
    stop = 2 ns
    step = 100 fs
    maxstep = 40 ps
    ic = all
    useprevic = no
    skipdc = no
    reltol = 1e-03
    abstol(V) = 1 uV
    abstol(I) = 1 pA
    temp = 0 C
    tnom = 27 C
    tempeffects = all
    errpreset = moderate
    method = traponly
    lteratio = 3.5
    relref = sigglobal
    cmin = 0 F
    gmin = 1 pS


Output and IC/nodeset summary:
                 probe  2       
                 save   3       (current)
                 save   563     (voltage)

......9......8......7......6......5......4......3......2......1......0
Number of accepted tran steps =             271

Maximum value achieved for any signal of each quantity: 
V: V(nor10_fanout4.nor12.2:Q) = 1.036 V
I: I(VGND:p) = 169 uA
If your circuit contains signals of the same quantity that are vastly different in size (such as high voltage circuitry combined with low voltage control circuitry), you should consider specifying global option `bin_relref=yes'.

~~~~~~~~~~~~~~~~~~~~~~~~~~~~~~~~~
Post-Transient Simulation Summary
~~~~~~~~~~~~~~~~~~~~~~~~~~~~~~~~~
   -   To further speed up simulation, consider
          add ++aps on command line
~~~~~~~~~~~~~~~~~~~~~~~~~~~~~~~~~


During simulation, the CPU load for active processors is :
         0 (40.6 %)      1 (21.6 %)      2 (7.8 %)       3 (100.0 %)
         4 (5.9 %)       5 (11.4 %)      6 (100.0 %)     7 (8.0 %)
         8 (7.5 %)       9 (6.6 %)      10 (8.5 %)      11 (8.2 %)
        Total: 326.1%
Initial condition solution time: CPU = 16.816 ms, elapsed = 19.0039 ms.
Intrinsic tran analysis time:    CPU = 743.537 ms, elapsed = 807.846 ms.
Opening mt file:  /CASNFSHOME2/home/sstatthoudakis/Documents/spectre/Gates/NOR2/nor_validate/corners/corner_pin2/gate_load/nor_ff.mt15
Total time required for tran analysis `transient16': CPU = 768.518 ms, elapsed = 876.173 ms, util. = 87.7%.
Time accumulated: CPU = 12.3855 s, elapsed = 15.9157 s.
Peak resident memory used = 151 Mbytes.


**************************
Alter Group `altergroup16'
**************************
Time for altergroup16: CPU = 22.846 ms, elapsed = 23.4461 ms.
Time accumulated: CPU = 12.4087 s, elapsed = 15.9415 s.
Peak resident memory used = 151 Mbytes.


******************************************************
Transient Analysis `transient17': time = (0 s -> 2 ns)
******************************************************

Notice from spectre during IC analysis `timeSweep_cloned_16', during transient analysis `transient17'.
    GminDC = 1 pS is large enough to noticeably affect the DC solution.
        dV(nor6.net16) = 253.887 uV
        Use the `gmin_check' option to eliminate or expand this report.

DC simulation time: CPU = 13.518 ms, elapsed = 15.5489 ms.

Notice from spectre during transient analysis `transient17'.
    No outputs were found. Loosening output filter criterion to `allpub'.


Opening the PSFXL file ./nor_ff.raw/transient17.tran.tran ...
Important parameter values:
    start = 0 s
    outputstart = 0 s
    stop = 2 ns
    step = 100 fs
    maxstep = 40 ps
    ic = all
    useprevic = no
    skipdc = no
    reltol = 1e-03
    abstol(V) = 1 uV
    abstol(I) = 1 pA
    temp = 50 C
    tnom = 27 C
    tempeffects = all
    errpreset = moderate
    method = traponly
    lteratio = 3.5
    relref = sigglobal
    cmin = 0 F
    gmin = 1 pS


Output and IC/nodeset summary:
                 probe  2       
                 save   3       (current)
                 save   563     (voltage)

......9......8......7......6......5......4......3......2......1......0
Number of accepted tran steps =             245

Maximum value achieved for any signal of each quantity: 
V: V(nor10_fanout4.nor13.2:Q) = 1.034 V
I: I(VVDD:p) = 165.2 uA
If your circuit contains signals of the same quantity that are vastly different in size (such as high voltage circuitry combined with low voltage control circuitry), you should consider specifying global option `bin_relref=yes'.

~~~~~~~~~~~~~~~~~~~~~~~~~~~~~~~~~
Post-Transient Simulation Summary
~~~~~~~~~~~~~~~~~~~~~~~~~~~~~~~~~
   -   To further speed up simulation, consider
          add ++aps on command line
~~~~~~~~~~~~~~~~~~~~~~~~~~~~~~~~~


During simulation, the CPU load for active processors is :
         0 (38.5 %)      1 (20.3 %)      2 (11.8 %)      3 (100.0 %)
         4 (5.9 %)       5 (10.9 %)      6 (100.0 %)     7 (8.1 %)
         8 (7.4 %)       9 (6.2 %)      10 (8.9 %)      11 (8.1 %)
        Total: 326.0%
Initial condition solution time: CPU = 13.576 ms, elapsed = 16.0561 ms.
Intrinsic tran analysis time:    CPU = 662.088 ms, elapsed = 743.48 ms.
Opening mt file:  /CASNFSHOME2/home/sstatthoudakis/Documents/spectre/Gates/NOR2/nor_validate/corners/corner_pin2/gate_load/nor_ff.mt16
Total time required for tran analysis `transient17': CPU = 688.264 ms, elapsed = 816.775 ms, util. = 84.3%.
Time accumulated: CPU = 13.114 s, elapsed = 16.8655 s.
Peak resident memory used = 151 Mbytes.


**************************
Alter Group `altergroup17'
**************************
Time for altergroup17: CPU = 19.764 ms, elapsed = 20.185 ms.
Time accumulated: CPU = 13.1339 s, elapsed = 16.8873 s.
Peak resident memory used = 151 Mbytes.


******************************************************
Transient Analysis `transient18': time = (0 s -> 2 ns)
******************************************************
DC simulation time: CPU = 13.394 ms, elapsed = 13.397 ms.

Notice from spectre during transient analysis `transient18'.
    No outputs were found. Loosening output filter criterion to `allpub'.


Opening the PSFXL file ./nor_ff.raw/transient18.tran.tran ...
Important parameter values:
    start = 0 s
    outputstart = 0 s
    stop = 2 ns
    step = 100 fs
    maxstep = 40 ps
    ic = all
    useprevic = no
    skipdc = no
    reltol = 1e-03
    abstol(V) = 1 uV
    abstol(I) = 1 pA
    temp = 125 C
    tnom = 27 C
    tempeffects = all
    errpreset = moderate
    method = traponly
    lteratio = 3.5
    relref = sigglobal
    cmin = 0 F
    gmin = 1 pS


Output and IC/nodeset summary:
                 probe  2       
                 save   3       (current)
                 save   563     (voltage)

......9......8......7......6......5......4......3......2......1......0
Number of accepted tran steps =             229

Maximum value achieved for any signal of each quantity: 
V: V(nor10_fanout4.nor13.2:Q) = 1.029 V
I: I(VVDD:p) = 155.9 uA
If your circuit contains signals of the same quantity that are vastly different in size (such as high voltage circuitry combined with low voltage control circuitry), you should consider specifying global option `bin_relref=yes'.

~~~~~~~~~~~~~~~~~~~~~~~~~~~~~~~~~
Post-Transient Simulation Summary
~~~~~~~~~~~~~~~~~~~~~~~~~~~~~~~~~
   -   To further speed up simulation, consider
          add ++aps on command line
~~~~~~~~~~~~~~~~~~~~~~~~~~~~~~~~~


During simulation, the CPU load for active processors is :
         0 (36.5 %)      1 (19.3 %)      2 (15.1 %)      3 (100.0 %)
         4 (5.6 %)       5 (10.4 %)      6 (100.0 %)     7 (8.3 %)
         8 (7.3 %)       9 (5.9 %)      10 (8.7 %)      11 (7.9 %)
        Total: 325.0%
Initial condition solution time: CPU = 13.518 ms, elapsed = 14.1852 ms.
Intrinsic tran analysis time:    CPU = 617.134 ms, elapsed = 688.265 ms.
Opening mt file:  /CASNFSHOME2/home/sstatthoudakis/Documents/spectre/Gates/NOR2/nor_validate/corners/corner_pin2/gate_load/nor_ff.mt17
Total time required for tran analysis `transient18': CPU = 640.348 ms, elapsed = 758.77 ms, util. = 84.4%.
Time accumulated: CPU = 13.7945 s, elapsed = 17.7403 s.
Peak resident memory used = 151 Mbytes.


**************************
Alter Group `altergroup18'
**************************
Time for altergroup18: CPU = 21.582 ms, elapsed = 21.9882 ms.
Time accumulated: CPU = 13.8163 s, elapsed = 17.7639 s.
Peak resident memory used = 151 Mbytes.


******************************************************
Transient Analysis `transient19': time = (0 s -> 2 ns)
******************************************************

Notice from spectre during IC analysis `timeSweep_cloned_18', during transient analysis `transient19'.
    GminDC = 1 pS is large enough to noticeably affect the DC solution.
        dV(nor9_fanout4.nor11.net16) = 1.98965 mV
        Use the `gmin_check' option to eliminate or expand this report.

DC simulation time: CPU = 14.07 ms, elapsed = 15.547 ms.

Notice from spectre during transient analysis `transient19'.
    No outputs were found. Loosening output filter criterion to `allpub'.


Opening the PSFXL file ./nor_ff.raw/transient19.tran.tran ...
Important parameter values:
    start = 0 s
    outputstart = 0 s
    stop = 2 ns
    step = 100 fs
    maxstep = 40 ps
    ic = all
    useprevic = no
    skipdc = no
    reltol = 1e-03
    abstol(V) = 1 uV
    abstol(I) = 1 pA
    temp = 0 C
    tnom = 27 C
    tempeffects = all
    errpreset = moderate
    method = traponly
    lteratio = 3.5
    relref = sigglobal
    cmin = 0 F
    gmin = 1 pS


Output and IC/nodeset summary:
                 probe  2       
                 save   3       (current)
                 save   563     (voltage)

......9......8......7......6......5......4......3......2......1......0
Number of accepted tran steps =             278

Maximum value achieved for any signal of each quantity: 
V: V(nor10_fanout4.nor13.2:Q) = 1.046 V
I: I(VGND:p) = 173 uA
If your circuit contains signals of the same quantity that are vastly different in size (such as high voltage circuitry combined with low voltage control circuitry), you should consider specifying global option `bin_relref=yes'.

~~~~~~~~~~~~~~~~~~~~~~~~~~~~~~~~~
Post-Transient Simulation Summary
~~~~~~~~~~~~~~~~~~~~~~~~~~~~~~~~~
   -   To further speed up simulation, consider
          add ++aps on command line
~~~~~~~~~~~~~~~~~~~~~~~~~~~~~~~~~


During simulation, the CPU load for active processors is :
         0 (34.6 %)      1 (18.3 %)      2 (19.0 %)      3 (100.0 %)
         4 (5.5 %)       5 (10.1 %)      6 (100.0 %)     7 (8.4 %)
         8 (7.4 %)       9 (5.8 %)      10 (8.8 %)      11 (7.6 %)
        Total: 325.5%
Initial condition solution time: CPU = 14.129 ms, elapsed = 15.9872 ms.
Intrinsic tran analysis time:    CPU = 780.477 ms, elapsed = 839.096 ms.
Opening mt file:  /CASNFSHOME2/home/sstatthoudakis/Documents/spectre/Gates/NOR2/nor_validate/corners/corner_pin2/gate_load/nor_ff.mt18
Total time required for tran analysis `transient19': CPU = 803.794 ms, elapsed = 918.872 ms, util. = 87.5%.
Time accumulated: CPU = 14.635 s, elapsed = 18.7695 s.
Peak resident memory used = 151 Mbytes.


**************************
Alter Group `altergroup19'
**************************
Time for altergroup19: CPU = 20.318 ms, elapsed = 20.9579 ms.
Time accumulated: CPU = 14.6554 s, elapsed = 18.7924 s.
Peak resident memory used = 151 Mbytes.


******************************************************
Transient Analysis `transient20': time = (0 s -> 2 ns)
******************************************************

Notice from spectre during IC analysis `timeSweep_cloned_19', during transient analysis `transient20'.
    GminDC = 1 pS is large enough to noticeably affect the DC solution.
        dV(nor6.net16) = 253.929 uV
        Use the `gmin_check' option to eliminate or expand this report.

DC simulation time: CPU = 14.046 ms, elapsed = 15.6019 ms.

Notice from spectre during transient analysis `transient20'.
    No outputs were found. Loosening output filter criterion to `allpub'.


Opening the PSFXL file ./nor_ff.raw/transient20.tran.tran ...
Important parameter values:
    start = 0 s
    outputstart = 0 s
    stop = 2 ns
    step = 100 fs
    maxstep = 40 ps
    ic = all
    useprevic = no
    skipdc = no
    reltol = 1e-03
    abstol(V) = 1 uV
    abstol(I) = 1 pA
    temp = 50 C
    tnom = 27 C
    tempeffects = all
    errpreset = moderate
    method = traponly
    lteratio = 3.5
    relref = sigglobal
    cmin = 0 F
    gmin = 1 pS


Output and IC/nodeset summary:
                 probe  2       
                 save   3       (current)
                 save   563     (voltage)

......9......8......7......6......5......4......3......2......1......0
Number of accepted tran steps =             252

Maximum value achieved for any signal of each quantity: 
V: V(nor10_fanout4.nor12.2:Q) = 1.044 V
I: I(VGND:p) = 164.6 uA
If your circuit contains signals of the same quantity that are vastly different in size (such as high voltage circuitry combined with low voltage control circuitry), you should consider specifying global option `bin_relref=yes'.

~~~~~~~~~~~~~~~~~~~~~~~~~~~~~~~~~
Post-Transient Simulation Summary
~~~~~~~~~~~~~~~~~~~~~~~~~~~~~~~~~
   -   To further speed up simulation, consider
          add ++aps on command line
~~~~~~~~~~~~~~~~~~~~~~~~~~~~~~~~~


During simulation, the CPU load for active processors is :
         0 (32.9 %)      1 (17.5 %)      2 (22.0 %)      3 (100.0 %)
         4 (5.4 %)       5 (9.9 %)       6 (100.0 %)     7 (8.1 %)
         8 (7.1 %)       9 (5.6 %)      10 (8.4 %)      11 (7.2 %)
        Total: 324.1%
Initial condition solution time: CPU = 14.112 ms, elapsed = 15.9659 ms.
Intrinsic tran analysis time:    CPU = 695.403 ms, elapsed = 757.378 ms.
Opening mt file:  /CASNFSHOME2/home/sstatthoudakis/Documents/spectre/Gates/NOR2/nor_validate/corners/corner_pin2/gate_load/nor_ff.mt19
Total time required for tran analysis `transient20': CPU = 719.21 ms, elapsed = 827.972 ms, util. = 86.9%.
Time accumulated: CPU = 15.3903 s, elapsed = 19.7081 s.
Peak resident memory used = 151 Mbytes.


**************************
Alter Group `altergroup20'
**************************
Time for altergroup20: CPU = 18.563 ms, elapsed = 18.8801 ms.
Time accumulated: CPU = 15.409 s, elapsed = 19.7283 s.
Peak resident memory used = 151 Mbytes.


******************************************************
Transient Analysis `transient21': time = (0 s -> 2 ns)
******************************************************
DC simulation time: CPU = 12.974 ms, elapsed = 12.9771 ms.

Notice from spectre during transient analysis `transient21'.
    No outputs were found. Loosening output filter criterion to `allpub'.


Opening the PSFXL file ./nor_ff.raw/transient21.tran.tran ...
Important parameter values:
    start = 0 s
    outputstart = 0 s
    stop = 2 ns
    step = 100 fs
    maxstep = 40 ps
    ic = all
    useprevic = no
    skipdc = no
    reltol = 1e-03
    abstol(V) = 1 uV
    abstol(I) = 1 pA
    temp = 125 C
    tnom = 27 C
    tempeffects = all
    errpreset = moderate
    method = traponly
    lteratio = 3.5
    relref = sigglobal
    cmin = 0 F
    gmin = 1 pS


Output and IC/nodeset summary:
                 probe  2       
                 save   3       (current)
                 save   563     (voltage)

......9......8......7......6......5......4......3......2......1......0
Number of accepted tran steps =             235

Maximum value achieved for any signal of each quantity: 
V: V(nor10_fanout4.nor13.2:Q) = 1.04 V
I: I(VGND:p) = 156.1 uA
If your circuit contains signals of the same quantity that are vastly different in size (such as high voltage circuitry combined with low voltage control circuitry), you should consider specifying global option `bin_relref=yes'.

~~~~~~~~~~~~~~~~~~~~~~~~~~~~~~~~~
Post-Transient Simulation Summary
~~~~~~~~~~~~~~~~~~~~~~~~~~~~~~~~~
   -   To further speed up simulation, consider
          add ++aps on command line
~~~~~~~~~~~~~~~~~~~~~~~~~~~~~~~~~


During simulation, the CPU load for active processors is :
         0 (31.5 %)      1 (16.8 %)      2 (24.5 %)      3 (100.0 %)
         4 (5.2 %)       5 (9.5 %)       6 (100.0 %)     7 (7.9 %)
         8 (6.9 %)       9 (5.7 %)      10 (8.3 %)      11 (7.0 %)
        Total: 323.3%
Initial condition solution time: CPU = 13.063 ms, elapsed = 13.5412 ms.
Intrinsic tran analysis time:    CPU = 635.673 ms, elapsed = 698.476 ms.
Opening mt file:  /CASNFSHOME2/home/sstatthoudakis/Documents/spectre/Gates/NOR2/nor_validate/corners/corner_pin2/gate_load/nor_ff.mt20
Total time required for tran analysis `transient21': CPU = 655.515 ms, elapsed = 763.407 ms, util. = 85.9%.
Time accumulated: CPU = 16.0784 s, elapsed = 20.5793 s.
Peak resident memory used = 151 Mbytes.


**************************
Alter Group `altergroup21'
**************************
Time for altergroup21: CPU = 18.262 ms, elapsed = 18.6329 ms.
Time accumulated: CPU = 16.0968 s, elapsed = 20.5994 s.
Peak resident memory used = 151 Mbytes.


******************************************************
Transient Analysis `transient22': time = (0 s -> 2 ns)
******************************************************

Notice from spectre during IC analysis `timeSweep_cloned_21', during transient analysis `transient22'.
    GminDC = 1 pS is large enough to noticeably affect the DC solution.
        dV(nor9_fanout4.nor11.net16) = 1.98728 mV
        Use the `gmin_check' option to eliminate or expand this report.

DC simulation time: CPU = 15.14 ms, elapsed = 16.495 ms.

Notice from spectre during transient analysis `transient22'.
    No outputs were found. Loosening output filter criterion to `allpub'.


Opening the PSFXL file ./nor_ff.raw/transient22.tran.tran ...
Important parameter values:
    start = 0 s
    outputstart = 0 s
    stop = 2 ns
    step = 100 fs
    maxstep = 40 ps
    ic = all
    useprevic = no
    skipdc = no
    reltol = 1e-03
    abstol(V) = 1 uV
    abstol(I) = 1 pA
    temp = 0 C
    tnom = 27 C
    tempeffects = all
    errpreset = moderate
    method = traponly
    lteratio = 3.5
    relref = sigglobal
    cmin = 0 F
    gmin = 1 pS


Output and IC/nodeset summary:
                 probe  2       
                 save   3       (current)
                 save   563     (voltage)

......9......8......7......6

Notice from spectre at time = 792.271 ps during transient analysis `transient22'.
    Found trapezoidal ringing on node nor6.3:A.

......9......8......7......6......5......4......3......2......1......0
Number of accepted tran steps =             268

Notice from spectre during transient analysis `transient22'.
    Trapezoidal ringing is detected during tran analysis.
        Please use method=trap for better results and performance.


Maximum value achieved for any signal of each quantity: 
V: V(nor10_fanout4.nor13.2:Q) = 1.056 V
I: I(VGND:p) = 178.1 uA
If your circuit contains signals of the same quantity that are vastly different in size (such as high voltage circuitry combined with low voltage control circuitry), you should consider specifying global option `bin_relref=yes'.

~~~~~~~~~~~~~~~~~~~~~~~~~~~~~~~~~
Post-Transient Simulation Summary
~~~~~~~~~~~~~~~~~~~~~~~~~~~~~~~~~
   -   To further speed up simulation, consider
          add ++aps on command line
~~~~~~~~~~~~~~~~~~~~~~~~~~~~~~~~~


During simulation, the CPU load for active processors is :
         0 (30.0 %)      1 (16.2 %)      2 (23.5 %)      3 (100.0 %)
         4 (5.3 %)       5 (12.9 %)      6 (100.0 %)     7 (7.8 %)
         8 (6.9 %)       9 (5.5 %)      10 (8.1 %)      11 (6.7 %)
        Total: 323.0%
Initial condition solution time: CPU = 15.208 ms, elapsed = 16.8002 ms.
Intrinsic tran analysis time:    CPU = 751.024 ms, elapsed = 824.364 ms.
Opening mt file:  /CASNFSHOME2/home/sstatthoudakis/Documents/spectre/Gates/NOR2/nor_validate/corners/corner_pin2/gate_load/nor_ff.mt21
Total time required for tran analysis `transient22': CPU = 773.377 ms, elapsed = 891.939 ms, util. = 86.7%.
Time accumulated: CPU = 16.8864 s, elapsed = 21.5859 s.
Peak resident memory used = 151 Mbytes.


**************************
Alter Group `altergroup22'
**************************
Time for altergroup22: CPU = 19.503 ms, elapsed = 20.0911 ms.
Time accumulated: CPU = 16.906 s, elapsed = 21.6078 s.
Peak resident memory used = 151 Mbytes.


******************************************************
Transient Analysis `transient23': time = (0 s -> 2 ns)
******************************************************

Notice from spectre during IC analysis `timeSweep_cloned_22', during transient analysis `transient23'.
    GminDC = 1 pS is large enough to noticeably affect the DC solution.
        dV(nor6.net16) = 253.934 uV
        Use the `gmin_check' option to eliminate or expand this report.

DC simulation time: CPU = 13.424 ms, elapsed = 15.018 ms.

Notice from spectre during transient analysis `transient23'.
    No outputs were found. Loosening output filter criterion to `allpub'.


Opening the PSFXL file ./nor_ff.raw/transient23.tran.tran ...
Important parameter values:
    start = 0 s
    outputstart = 0 s
    stop = 2 ns
    step = 100 fs
    maxstep = 40 ps
    ic = all
    useprevic = no
    skipdc = no
    reltol = 1e-03
    abstol(V) = 1 uV
    abstol(I) = 1 pA
    temp = 50 C
    tnom = 27 C
    tempeffects = all
    errpreset = moderate
    method = traponly
    lteratio = 3.5
    relref = sigglobal
    cmin = 0 F
    gmin = 1 pS


Output and IC/nodeset summary:
                 probe  2       
                 save   3       (current)
                 save   563     (voltage)

......9......8......7......6......5......4......3......2......1......0
Number of accepted tran steps =             255

Maximum value achieved for any signal of each quantity: 
V: V(nor10_fanout4.nor11.2:Q) = 1.054 V
I: I(VGND:p) = 168.3 uA
If your circuit contains signals of the same quantity that are vastly different in size (such as high voltage circuitry combined with low voltage control circuitry), you should consider specifying global option `bin_relref=yes'.

~~~~~~~~~~~~~~~~~~~~~~~~~~~~~~~~~
Post-Transient Simulation Summary
~~~~~~~~~~~~~~~~~~~~~~~~~~~~~~~~~
   -   To further speed up simulation, consider
          add ++aps on command line
~~~~~~~~~~~~~~~~~~~~~~~~~~~~~~~~~


During simulation, the CPU load for active processors is :
         0 (28.7 %)      1 (15.6 %)      2 (22.6 %)      3 (100.0 %)
         4 (5.2 %)       5 (15.8 %)      6 (100.0 %)     7 (7.7 %)
         8 (6.7 %)       9 (5.4 %)      10 (8.0 %)      11 (6.4 %)
        Total: 322.0%
Initial condition solution time: CPU = 13.485 ms, elapsed = 15.43 ms.
Intrinsic tran analysis time:    CPU = 713.887 ms, elapsed = 811.62 ms.
Opening mt file:  /CASNFSHOME2/home/sstatthoudakis/Documents/spectre/Gates/NOR2/nor_validate/corners/corner_pin2/gate_load/nor_ff.mt22
Total time required for tran analysis `transient23': CPU = 734.708 ms, elapsed = 878.406 ms, util. = 83.6%.
Time accumulated: CPU = 17.6654 s, elapsed = 22.5955 s.
Peak resident memory used = 151 Mbytes.


**************************
Alter Group `altergroup23'
**************************
Time for altergroup23: CPU = 21.105 ms, elapsed = 21.6491 ms.
Time accumulated: CPU = 17.6867 s, elapsed = 22.6186 s.
Peak resident memory used = 151 Mbytes.


[...]
~~~~~~~~~~~~~~~~~~~~~~~~~~~~~~~~~


During simulation, the CPU load for active processors is :
         0 (46.7 %)      1 (25.1 %)      2 (45.0 %)      3 (27.1 %)
         4 (8.9 %)       5 (36.5 %)      6 (24.8 %)      7 (20.7 %)
         8 (64.3 %)      9 (3.2 %)      10 (3.5 %)      11 (3.7 %)
        Total: 309.5%
Initial condition solution time: CPU = 12.796 ms, elapsed = 13.469 ms.
Intrinsic tran analysis time:    CPU = 726.091 ms, elapsed = 806.821 ms.
Opening mt file:  /CASNFSHOME2/home/sstatthoudakis/Documents/spectre/Gates/NOR2/nor_validate/corners/corner_pin2/gate_load/nor_ff.mt140
Total time required for tran analysis `transient141': CPU = 748.492 ms, elapsed = 875.721 ms, util. = 85.5%.
Time accumulated: CPU = 116.549 s (1m  56.5s), elapsed = 145.765 s (2m  25.8s).
Peak resident memory used = 157 Mbytes.


***************************
Alter Group `altergroup141'
***************************
Time for altergroup141: CPU = 23.275 ms, elapsed = 23.9768 ms.
Time accumulated: CPU = 116.572 s (1m  56.6s), elapsed = 145.79 s (2m  25.8s).
Peak resident memory used = 157 Mbytes.


*******************************************************
Transient Analysis `transient142': time = (0 s -> 2 ns)
*******************************************************

Notice from spectre during IC analysis `timeSweep_cloned_141', during transient analysis `transient142'.
    GminDC = 1 pS is large enough to noticeably affect the DC solution.
        dV(nor10.net16) = 1.79066 mV
        Use the `gmin_check' option to eliminate or expand this report.

DC simulation time: CPU = 14.378 ms, elapsed = 15.7399 ms.

Notice from spectre during transient analysis `transient142'.
    No outputs were found. Loosening output filter criterion to `allpub'.


Opening the PSFXL file ./nor_ff.raw/transient142.tran.tran ...
Important parameter values:
    start = 0 s
    outputstart = 0 s
    stop = 2 ns
    step = 100 fs
    maxstep = 40 ps
    ic = all
    useprevic = no
    skipdc = no
    reltol = 1e-03
    abstol(V) = 1 uV
    abstol(I) = 1 pA
    temp = 0 C
    tnom = 27 C
    tempeffects = all
    errpreset = moderate
    method = traponly
    lteratio = 3.5
    relref = sigglobal
    cmin = 0 F
    gmin = 1 pS


Output and IC/nodeset summary:
                 probe  2       
                 save   3       (current)
                 save   563     (voltage)

......9......8......7......6......5......4......3......2......1......0
Number of accepted tran steps =             317

Maximum value achieved for any signal of each quantity: 
V: V(nor10_fanout4.nor13.2:Q) = 1.459 V
I: I(VGND:p) = 383.6 uA
If your circuit contains signals of the same quantity that are vastly different in size (such as high voltage circuitry combined with low voltage control circuitry), you should consider specifying global option `bin_relref=yes'.

~~~~~~~~~~~~~~~~~~~~~~~~~~~~~~~~~
Post-Transient Simulation Summary
~~~~~~~~~~~~~~~~~~~~~~~~~~~~~~~~~
   -   To further speed up simulation, consider
          add ++aps on command line
~~~~~~~~~~~~~~~~~~~~~~~~~~~~~~~~~


During simulation, the CPU load for active processors is :
         0 (46.4 %)      1 (24.9 %)      2 (45.4 %)      3 (26.9 %)
         4 (9.5 %)       5 (36.2 %)      6 (24.6 %)      7 (20.6 %)
         8 (64.6 %)      9 (3.2 %)      10 (3.5 %)      11 (3.7 %)
        Total: 309.5%
Initial condition solution time: CPU = 14.443 ms, elapsed = 16.104 ms.
Intrinsic tran analysis time:    CPU = 871.636 ms, elapsed = 935.784 ms.
Opening mt file:  /CASNFSHOME2/home/sstatthoudakis/Documents/spectre/Gates/NOR2/nor_validate/corners/corner_pin2/gate_load/nor_ff.mt141
Total time required for tran analysis `transient142': CPU = 893.231 ms, elapsed = 1.00049 s, util. = 89.3%.
Time accumulated: CPU = 117.482 s (1m  57.5s), elapsed = 146.889 s (2m  26.9s).
Peak resident memory used = 157 Mbytes.


***************************
Alter Group `altergroup142'
***************************
Time for altergroup142: CPU = 20.642 ms, elapsed = 20.936 ms.
Time accumulated: CPU = 117.503 s (1m  57.5s), elapsed = 146.91 s (2m  26.9s).
Peak resident memory used = 157 Mbytes.


*******************************************************
Transient Analysis `transient143': time = (0 s -> 2 ns)
*******************************************************

Notice from spectre during IC analysis `timeSweep_cloned_142', during transient analysis `transient143'.
    GminDC = 1 pS is large enough to noticeably affect the DC solution.
        dV(nor2.net16) = 239.741 uV
        Use the `gmin_check' option to eliminate or expand this report.

DC simulation time: CPU = 12.915 ms, elapsed = 14.528 ms.

Notice from spectre during transient analysis `transient143'.
    No outputs were found. Loosening output filter criterion to `allpub'.


Opening the PSFXL file ./nor_ff.raw/transient143.tran.tran ...
Important parameter values:
    start = 0 s
    outputstart = 0 s
    stop = 2 ns
    step = 100 fs
    maxstep = 40 ps
    ic = all
    useprevic = no
    skipdc = no
    reltol = 1e-03
    abstol(V) = 1 uV
    abstol(I) = 1 pA
    temp = 50 C
    tnom = 27 C
    tempeffects = all
    errpreset = moderate
    method = traponly
    lteratio = 3.5
    relref = sigglobal
    cmin = 0 F
    gmin = 1 pS


Output and IC/nodeset summary:
                 probe  2       
                 save   3       (current)
                 save   563     (voltage)

......9......8......7..

Notice from spectre at time = 666.418 ps during transient analysis `transient143'.
    Found trapezoidal ringing on node nor8.3:A.

......9......8......7......6......5......4......3......2......1......0
Number of accepted tran steps =             304

Notice from spectre during transient analysis `transient143'.
    Trapezoidal ringing is detected during tran analysis.
        Please use method=trap for better results and performance.


Maximum value achieved for any signal of each quantity: 
V: V(nor10_fanout4.nor12.2:Q) = 1.457 V
I: I(VGND:p) = 362.9 uA
If your circuit contains signals of the same quantity that are vastly different in size (such as high voltage circuitry combined with low voltage control circuitry), you should consider specifying global option `bin_relref=yes'.

~~~~~~~~~~~~~~~~~~~~~~~~~~~~~~~~~
Post-Transient Simulation Summary
~~~~~~~~~~~~~~~~~~~~~~~~~~~~~~~~~
   -   To further speed up simulation, consider
          add ++aps on command line
~~~~~~~~~~~~~~~~~~~~~~~~~~~~~~~~~


During simulation, the CPU load for active processors is :
         0 (46.1 %)      1 (24.8 %)      2 (45.8 %)      3 (26.8 %)
         4 (10.0 %)      5 (36.0 %)      6 (24.4 %)      7 (20.5 %)
         8 (64.8 %)      9 (3.2 %)      10 (3.4 %)      11 (3.7 %)
        Total: 309.5%
Initial condition solution time: CPU = 12.972 ms, elapsed = 14.9331 ms.
Intrinsic tran analysis time:    CPU = 811.022 ms, elapsed = 874.364 ms.
Opening mt file:  /CASNFSHOME2/home/sstatthoudakis/Documents/spectre/Gates/NOR2/nor_validate/corners/corner_pin2/gate_load/nor_ff.mt142
Total time required for tran analysis `transient143': CPU = 831.107 ms, elapsed = 908.209 ms, util. = 91.5%.
Time accumulated: CPU = 118.352 s (1m  58.4s), elapsed = 147.928 s (2m  27.9s).
Peak resident memory used = 157 Mbytes.


***************************
Alter Group `altergroup143'
***************************
Time for altergroup143: CPU = 24.074 ms, elapsed = 24.5759 ms.
Time accumulated: CPU = 118.377 s (1m  58.4s), elapsed = 147.954 s (2m  28.0s).
Peak resident memory used = 157 Mbytes.


*******************************************************
Transient Analysis `transient144': time = (0 s -> 2 ns)
*******************************************************
DC simulation time: CPU = 12.946 ms, elapsed = 12.949 ms.

Notice from spectre during transient analysis `transient144'.
    No outputs were found. Loosening output filter criterion to `allpub'.


Opening the PSFXL file ./nor_ff.raw/transient144.tran.tran ...
Important parameter values:
    start = 0 s
    outputstart = 0 s
    stop = 2 ns
    step = 100 fs
    maxstep = 40 ps
    ic = all
    useprevic = no
    skipdc = no
    reltol = 1e-03
    abstol(V) = 1 uV
    abstol(I) = 1 pA
    temp = 125 C
    tnom = 27 C
    tempeffects = all
    errpreset = moderate
    method = traponly
    lteratio = 3.5
    relref = sigglobal
    cmin = 0 F
    gmin = 1 pS


Output and IC/nodeset summary:
                 probe  2       
                 save   3       (current)
                 save   563     (voltage)

......9......8......7......6......5......4......3......2......1......0
Number of accepted tran steps =             279

Maximum value achieved for any signal of each quantity: 
V: V(nor10_fanout4.nor13.2:Q) = 1.453 V
I: I(VGND:p) = 345.4 uA
If your circuit contains signals of the same quantity that are vastly different in size (such as high voltage circuitry combined with low voltage control circuitry), you should consider specifying global option `bin_relref=yes'.

~~~~~~~~~~~~~~~~~~~~~~~~~~~~~~~~~
Post-Transient Simulation Summary
~~~~~~~~~~~~~~~~~~~~~~~~~~~~~~~~~
   -   To further speed up simulation, consider
          add ++aps on command line
~~~~~~~~~~~~~~~~~~~~~~~~~~~~~~~~~


During simulation, the CPU load for active processors is :
         0 (45.8 %)      1 (24.6 %)      2 (46.2 %)      3 (26.6 %)
         4 (10.5 %)      5 (35.8 %)      6 (24.3 %)      7 (20.4 %)
         8 (65.0 %)      9 (3.2 %)      10 (3.4 %)      11 (3.7 %)
        Total: 309.5%
Initial condition solution time: CPU = 13.037 ms, elapsed = 13.6769 ms.
Intrinsic tran analysis time:    CPU = 727.576 ms, elapsed = 790.622 ms.
Opening mt file:  /CASNFSHOME2/home/sstatthoudakis/Documents/spectre/Gates/NOR2/nor_validate/corners/corner_pin2/gate_load/nor_ff.mt143
Total time required for tran analysis `transient144': CPU = 747.434 ms, elapsed = 823.734 ms, util. = 90.7%.
Time accumulated: CPU = 119.139 s (1m  59.1s), elapsed = 148.883 s (2m  28.9s).
Peak resident memory used = 157 Mbytes.


***************************
Alter Group `altergroup144'
***************************
Time for altergroup144: CPU = 20.359 ms, elapsed = 20.7431 ms.
Time accumulated: CPU = 119.16 s (1m  59.2s), elapsed = 148.905 s (2m  28.9s).
Peak resident memory used = 157 Mbytes.


*******************************************************
Transient Analysis `transient145': time = (0 s -> 2 ns)
*******************************************************

Notice from spectre during IC analysis `timeSweep_cloned_144', during transient analysis `transient145'.
    GminDC = 1 pS is large enough to noticeably affect the DC solution.
        dV(nor10.net16) = 1.78395 mV
        Use the `gmin_check' option to eliminate or expand this report.

DC simulation time: CPU = 13.893 ms, elapsed = 15.4562 ms.

Notice from spectre during transient analysis `transient145'.
    No outputs were found. Loosening output filter criterion to `allpub'.


Opening the PSFXL file ./nor_ff.raw/transient145.tran.tran ...
Important parameter values:
    start = 0 s
    outputstart = 0 s
    stop = 2 ns
    step = 100 fs
    maxstep = 40 ps
    ic = all
    useprevic = no
    skipdc = no
    reltol = 1e-03
    abstol(V) = 1 uV
    abstol(I) = 1 pA
    temp = 0 C
    tnom = 27 C
    tempeffects = all
    errpreset = moderate
    method = traponly
    lteratio = 3.5
    relref = sigglobal
    cmin = 0 F
    gmin = 1 pS


Output and IC/nodeset summary:
                 probe  2       
                 save   3       (current)
                 save   563     (voltage)

......9......8......7.

Notice from spectre at time = 640.585 ps during transient analysis `transient145'.
    Found trapezoidal ringing on node nor7_fanout4.nor11.3:A.

......9......8......7......6......5....

Notice from spectre at time = 1.12777 ns during transient analysis `transient145'.
    Found trapezoidal ringing on node VGND:p.
Notice from spectre at time = 1.155 ns during transient analysis `transient145'.
    Found trapezoidal ringing on node VGND:p.

......9......8......7......6......5......4......3......2......1......0
Number of accepted tran steps =             323

Notice from spectre during transient analysis `transient145'.
    Trapezoidal ringing is detected during tran analysis.
        Please use method=trap for better results and performance.


Maximum value achieved for any signal of each quantity: 
V: V(nor10_fanout4.nor11.2:Q) = 1.47 V
I: I(VGND:p) = 387.9 uA
If your circuit contains signals of the same quantity that are vastly different in size (such as high voltage circuitry combined with low voltage control circuitry), you should consider specifying global option `bin_relref=yes'.

~~~~~~~~~~~~~~~~~~~~~~~~~~~~~~~~~
Post-Transient Simulation Summary
~~~~~~~~~~~~~~~~~~~~~~~~~~~~~~~~~
   -   To further speed up simulation, consider
          add ++aps on command line
~~~~~~~~~~~~~~~~~~~~~~~~~~~~~~~~~


During simulation, the CPU load for active processors is :
         0 (45.4 %)      1 (24.5 %)      2 (46.6 %)      3 (26.4 %)
         4 (11.0 %)      5 (35.5 %)      6 (24.1 %)      7 (20.3 %)
         8 (65.3 %)      9 (3.3 %)      10 (3.4 %)      11 (3.7 %)
        Total: 309.5%
Initial condition solution time: CPU = 13.956 ms, elapsed = 15.8522 ms.
Intrinsic tran analysis time:    CPU = 874.887 ms, elapsed = 961.656 ms.
Opening mt file:  /CASNFSHOME2/home/sstatthoudakis/Documents/spectre/Gates/NOR2/nor_validate/corners/corner_pin2/gate_load/nor_ff.mt144
Total time required for tran analysis `transient145': CPU = 896.278 ms, elapsed = 1.0261 s, util. = 87.3%.
Time accumulated: CPU = 120.072 s (2m  0.1s), elapsed = 150.035 s (2m  30.0s).
Peak resident memory used = 157 Mbytes.


***************************
Alter Group `altergroup145'
***************************
Time for altergroup145: CPU = 19.981 ms, elapsed = 20.4871 ms.
Time accumulated: CPU = 120.092 s (2m  0.1s), elapsed = 150.057 s (2m  30.1s).
Peak resident memory used = 157 Mbytes.


*******************************************************
Transient Analysis `transient146': time = (0 s -> 2 ns)
*******************************************************

Notice from spectre during IC analysis `timeSweep_cloned_145', during transient analysis `transient146'.
    GminDC = 1 pS is large enough to noticeably affect the DC solution.
        dV(nor2.net16) = 239.2 uV
        Use the `gmin_check' option to eliminate or expand this report.

DC simulation time: CPU = 13.33 ms, elapsed = 14.6081 ms.

Notice from spectre during transient analysis `transient146'.
    No outputs were found. Loosening output filter criterion to `allpub'.


Opening the PSFXL file ./nor_ff.raw/transient146.tran.tran ...
Important parameter values:
    start = 0 s
    outputstart = 0 s
    stop = 2 ns
    step = 100 fs
    maxstep = 40 ps
    ic = all
    useprevic = no
    skipdc = no
    reltol = 1e-03
    abstol(V) = 1 uV
    abstol(I) = 1 pA
    temp = 50 C
    tnom = 27 C
    tempeffects = all
    errpreset = moderate
    method = traponly
    lteratio = 3.5
    relref = sigglobal
    cmin = 0 F
    gmin = 1 pS


Output and IC/nodeset summary:
                 probe  2       
                 save   3       (current)
                 save   563     (voltage)

......9......8......7......6......5......4......3......2......1......0
Number of accepted tran steps =             307

Maximum value achieved for any signal of each quantity: 
V: V(nor10_fanout4.nor13.2:Q) = 1.467 V
I: I(VGND:p) = 367.9 uA
If your circuit contains signals of the same quantity that are vastly different in size (such as high voltage circuitry combined with low voltage control circuitry), you should consider specifying global option `bin_relref=yes'.

~~~~~~~~~~~~~~~~~~~~~~~~~~~~~~~~~
Post-Transient Simulation Summary
~~~~~~~~~~~~~~~~~~~~~~~~~~~~~~~~~
   -   To further speed up simulation, consider
          add ++aps on command line
~~~~~~~~~~~~~~~~~~~~~~~~~~~~~~~~~


During simulation, the CPU load for active processors is :
         0 (45.1 %)      1 (24.4 %)      2 (47.0 %)      3 (26.2 %)
         4 (11.5 %)      5 (35.3 %)      6 (24.0 %)      7 (20.2 %)
         8 (65.6 %)      9 (3.2 %)      10 (3.4 %)      11 (3.7 %)
        Total: 309.5%
Initial condition solution time: CPU = 13.393 ms, elapsed = 14.9939 ms.
Intrinsic tran analysis time:    CPU = 826.521 ms, elapsed = 892.903 ms.
Opening mt file:  /CASNFSHOME2/home/sstatthoudakis/Documents/spectre/Gates/NOR2/nor_validate/corners/corner_pin2/gate_load/nor_ff.mt145
Total time required for tran analysis `transient146': CPU = 846.963 ms, elapsed = 957.975 ms, util. = 88.4%.
Time accumulated: CPU = 120.954 s (2m  1.0s), elapsed = 151.114 s (2m  31.1s).
Peak resident memory used = 157 Mbytes.


***************************
Alter Group `altergroup146'
***************************
Time for altergroup146: CPU = 19.428 ms, elapsed = 19.829 ms.
Time accumulated: CPU = 120.974 s (2m  1.0s), elapsed = 151.135 s (2m  31.1s).
Peak resident memory used = 157 Mbytes.


*******************************************************
Transient Analysis `transient147': time = (0 s -> 2 ns)
*******************************************************
DC simulation time: CPU = 13.249 ms, elapsed = 13.2511 ms.

Notice from spectre during transient analysis `transient147'.
    No outputs were found. Loosening output filter criterion to `allpub'.


Opening the PSFXL file ./nor_ff.raw/transient147.tran.tran ...
Important parameter values:
    start = 0 s
    outputstart = 0 s
    stop = 2 ns
    step = 100 fs
    maxstep = 40 ps
    ic = all
    useprevic = no
    skipdc = no
    reltol = 1e-03
    abstol(V) = 1 uV
    abstol(I) = 1 pA
    temp = 125 C
    tnom = 27 C
    tempeffects = all
    errpreset = moderate
    method = traponly
    lteratio = 3.5
    relref = sigglobal
    cmin = 0 F
    gmin = 1 pS


Output and IC/nodeset summary:
                 probe  2       
                 save   3       (current)
                 save   563     (voltage)

......9......8......7......6......5......4......3......2......1......0
Number of accepted tran steps =             284

Maximum value achieved for any signal of each quantity: 
V: V(nor10_fanout4.nor13.2:Q) = 1.463 V
I: I(VGND:p) = 349.8 uA
If your circuit contains signals of the same quantity that are vastly different in size (such as high voltage circuitry combined with low voltage control circuitry), you should consider specifying global option `bin_relref=yes'.

~~~~~~~~~~~~~~~~~~~~~~~~~~~~~~~~~
Post-Transient Simulation Summary
~~~~~~~~~~~~~~~~~~~~~~~~~~~~~~~~~
   -   To further speed up simulation, consider
          add ++aps on command line
~~~~~~~~~~~~~~~~~~~~~~~~~~~~~~~~~


During simulation, the CPU load for active processors is :
         0 (44.8 %)      1 (24.2 %)      2 (47.3 %)      3 (26.1 %)
         4 (12.0 %)      5 (35.1 %)      6 (23.9 %)      7 (20.0 %)
         8 (65.8 %)      9 (3.2 %)      10 (3.4 %)      11 (3.7 %)
        Total: 309.4%
Initial condition solution time: CPU = 13.345 ms, elapsed = 13.8052 ms.
Intrinsic tran analysis time:    CPU = 739.301 ms, elapsed = 793.558 ms.
Opening mt file:  /CASNFSHOME2/home/sstatthoudakis/Documents/spectre/Gates/NOR2/nor_validate/corners/corner_pin2/gate_load/nor_ff.mt146
Total time required for tran analysis `transient147': CPU = 759.386 ms, elapsed = 853.955 ms, util. = 88.9%.
Time accumulated: CPU = 121.748 s (2m  1.7s), elapsed = 152.075 s (2m  32.1s).
Peak resident memory used = 157 Mbytes.

Licensing Information:
Lic Summary:
[14:41:36.110520] Cdslmd servers:5280@10.64.82.10
[14:41:36.110659] Feature usage summary:
[14:41:36.110666] Virtuoso_Multi_mode_Simulation


Aggregate audit (2:41:36 PM, Wed Oct 29, 2025):
Time used: CPU = 122 s (2m  1.8s), elapsed = 152 s (2m  32.2s), util. = 80%.
Time spent in licensing: elapsed = 107 ms.
Peak memory used = 158 Mbytes.
Simulation started at: 2:39:03 PM, Wed Oct 29, 2025, ended at: 2:41:36 PM, Wed Oct 29, 2025, with elapsed time (wall clock): 152 s (2m  32.2s).
spectre completes with 0 errors, 12 warnings, and 392 notices.
