
Spectre (R) Circuit Simulator
Version 23.1.0.242.isr1 64bit -- 7 Sep 2023
Copyright (C) 1989-2023 Cadence Design Systems, Inc. All rights reserved worldwide. Cadence and Spectre are registered trademarks of Cadence Design Systems, Inc. All others are the property of their respective holders.

Includes RSA BSAFE(R) Cryptographic or Security Protocol Software from RSA Security, Inc.

User: sstatthoudakis   Host: torreyridge   HostID: 7F0100   PID: 30559
Memory  available: 104.5137 GB  physical: 135.0278 GB
Linux   : CentOS Linux release 7 (Core)
CPU Type: Intel(R) Xeon(R) Silver 4114 CPU @ 2.20GHz
All processors running at 2194.8 MHz
        Socket: Processors
        0:       0
        2:       1
        4:       2
        6:       3
        8:       4
        10:      5
        12:      6
        14:      7
        16:      8
        18:      9
        20:     10
        22:     11
        
System load averages (1min, 5min, 15min) : 26.6 %, 26.6 %, 24.5 %
This is a virtual machine


Simulating `nor_tt.scs' on torreyridge at 2:43:51 PM, Wed Oct 29, 2025 (process id: 30559).
Current working directory: /CASNFSHOME2/home/sstatthoudakis/Documents/spectre/Gates/NOR2/nor_validate/corners/corner_pin2/gate_load
Command line:
     \
        /CASNFSHOME/home/edatools/cadence/2023-24/RHELx86/SPECTRE_23.10.242/tools.lnx86/bin/spectre  \
        -64 nor_tt.scs

Licensing Information:
[14:43:52.231833] Configured Lic search path (22.01-s002): 5280@10.64.82.10

Licensing Information:
[14:43:52.278560] Periodic Lic check successful

Loading /CASNFSHOME/home/edatools/cadence/2023-24/RHELx86/SPECTRE_23.10.242/tools.lnx86/cmi/lib/64bit/5.0/libinfineon_sh.so ...
Loading /CASNFSHOME/home/edatools/cadence/2023-24/RHELx86/SPECTRE_23.10.242/tools.lnx86/cmi/lib/64bit/5.0/libphilips_I_sh.so ...
Loading /CASNFSHOME/home/edatools/cadence/2023-24/RHELx86/SPECTRE_23.10.242/tools.lnx86/cmi/lib/64bit/5.0/libphilips_sh.so ...
Loading /CASNFSHOME/home/edatools/cadence/2023-24/RHELx86/SPECTRE_23.10.242/tools.lnx86/cmi/lib/64bit/5.0/libsparam_sh.so ...
Loading /CASNFSHOME/home/edatools/cadence/2023-24/RHELx86/SPECTRE_23.10.242/tools.lnx86/cmi/lib/64bit/5.0/libstmodels_sh.so ...
Reading file:  /CASNFSHOME2/home/sstatthoudakis/Documents/spectre/Gates/NOR2/nor_validate/corners/corner_pin2/gate_load/nor_tt.scs
Reading file:  /CASNFSHOME/home/edatools/cadence/2023-24/RHELx86/SPECTRE_23.10.242/tools.lnx86/spectre/etc/configs/spectre.cfg
Reading file:  /CASNFSHOME/home/tsaikaterini/IHP/IHP_Generation_files/130ng/ihp013ng_include_all.scs
Reading file:  /CASNFSHOME/home/tsaikaterini/IHP/IHP_Generation_files/130ng/SG13S_618_rev1.12.15/tech/SG13_HBT/VBIC/spectre/SG13_cornerBIP.scs
Reading file:  /CASNFSHOME/home/tsaikaterini/IHP/IHP_Generation_files/130ng/SG13S_618_rev1.12.15/tech/SG13_HBT/VBIC/spectre/SG13_hbt.lib
Reading file:  /CASNFSHOME/home/tsaikaterini/IHP/IHP_Generation_files/130ng/SG13S_618_rev1.12.15/tech/SG13_HBT/VBIC/spectre/SG13_hbt_mm.scs
Reading file:  /CASNFSHOME/home/tsaikaterini/IHP/IHP_Generation_files/130ng/SG13S_618_rev1.12.15/tech/SG13_HBT/VBIC/spectre/SG13_hbt_stat.scs
Reading file:  /CASNFSHOME/home/tsaikaterini/IHP/IHP_Generation_files/130ng/SG13S_618_rev1.12.15/tech/SG13_MOS/library/spectre/cornerMOSlv_psp.scs
Reading file:  /CASNFSHOME/home/tsaikaterini/IHP/IHP_Generation_files/130ng/SG13S_618_rev1.12.15/tech/SG13_MOS/library/spectre/sg13_moslv_psp_stat.scs
Reading file:  /CASNFSHOME/home/tsaikaterini/IHP/IHP_Generation_files/130ng/SG13S_618_rev1.12.15/tech/SG13_MOS/library/spectre/sg13_moslv_psp_mod.lib
Reading file:  /CASNFSHOME/home/tsaikaterini/IHP/IHP_Generation_files/130ng/SG13S_618_rev1.12.15/tech/SG13_MOS/library/spectre/sg13_moslv_psp_parm.scs
Reading file:  /CASNFSHOME/home/tsaikaterini/IHP/IHP_Generation_files/130ng/SG13S_618_rev1.12.15/tech/SG13_MOS/library/spectre/cornerMOShv_psp.scs
Reading file:  /CASNFSHOME/home/tsaikaterini/IHP/IHP_Generation_files/130ng/SG13S_618_rev1.12.15/tech/SG13_MOS/library/spectre/sg13_moshv_psp_stat.scs
Reading file:  /CASNFSHOME/home/tsaikaterini/IHP/IHP_Generation_files/130ng/SG13S_618_rev1.12.15/tech/SG13_MOS/library/spectre/sg13_moshv_psp_mod.lib
Reading file:  /CASNFSHOME/home/tsaikaterini/IHP/IHP_Generation_files/130ng/SG13S_618_rev1.12.15/tech/SG13_MOS/library/spectre/sg13_moshv_psp_parm.scs

Warning from spectre in `nmoselt', during circuit read-in.
    WARNING (SFE-2296): "/CASNFSHOME/home/tsaikaterini/IHP/IHP_Generation_files/130ng/SG13S_618_rev1.12.15/tech/SG13_MOS/library/spectre/sg13_moshv_psp_mod.lib" 79: The inline subckt definition `nmoselt' does not contain any inline components. The `inline' qualifier will therefore be ignored.

Reading file:  /CASNFSHOME/home/tsaikaterini/IHP/IHP_Generation_files/130ng/SG13S_618_rev1.12.15/tech/SG13_MOS/library/spectre/sg13_svaricaphv_mosvar_mod.lib
Reading file:  /CASNFSHOME/home/tsaikaterini/IHP/IHP_Generation_files/130ng/SG13S_618_rev1.12.15/tech/SG13_PASSIVES/spectre/SG13_cornerRES.scs
Reading file:  /CASNFSHOME/home/tsaikaterini/IHP/IHP_Generation_files/130ng/SG13S_618_rev1.12.15/tech/SG13_PASSIVES/spectre/SG13_res_mm.scs
Reading file:  /CASNFSHOME/home/tsaikaterini/IHP/IHP_Generation_files/130ng/SG13S_618_rev1.12.15/tech/SG13_PASSIVES/spectre/SG13_res_stat.scs
Reading file:  /CASNFSHOME/home/tsaikaterini/IHP/IHP_Generation_files/130ng/SG13S_618_rev1.12.15/tech/SG13_PASSIVES/spectre/SG13_res.lib
Reading file:  /CASNFSHOME/home/tsaikaterini/IHP/IHP_Generation_files/130ng/SG13S_618_rev1.12.15/tech/SG13_PASSIVES/spectre/SG13_cornerCAP.scs
Reading file:  /CASNFSHOME/home/tsaikaterini/IHP/IHP_Generation_files/130ng/SG13S_618_rev1.12.15/tech/SG13_PASSIVES/spectre/SG13_cap_mm.scs
Reading file:  /CASNFSHOME/home/tsaikaterini/IHP/IHP_Generation_files/130ng/SG13S_618_rev1.12.15/tech/SG13_PASSIVES/spectre/SG13_cap_stat.scs
Reading file:  /CASNFSHOME/home/tsaikaterini/IHP/IHP_Generation_files/130ng/SG13S_618_rev1.12.15/tech/SG13_PASSIVES/spectre/SG13_cap.lib
Reading file:  /CASNFSHOME/home/tsaikaterini/IHP/IHP_Generation_files/130ng/SG13S_618_rev1.12.15/tech/SG13_PASSIVES/spectre/Ind_unit_4PI
Reading file:  /CASNFSHOME/home/tsaikaterini/IHP/IHP_Generation_files/130ng/SG13S_618_rev1.12.15/tech/SG13_PASSIVES/spectre/Parameters_define_4PI
Reading file:  /CASNFSHOME/home/tsaikaterini/IHP/IHP_Generation_files/130ng/SG13S_618_rev1.12.15/tech/SG13_PASSIVES/spectre/sg13s_dschottky_nbl1_mod.lib
Reading file:  /CASNFSHOME/home/tsaikaterini/IHP/IHP_Generation_files/130ng/SG13S_618_rev1.12.15/tech/SG13_PASSIVES/spectre/SG13_diodes.lib
Reading file:  /CASNFSHOME/home/tsaikaterini/IHP/IHP_Generation_files/130ng/SG13S_618_rev1.12.15/tech/SG13_MOS/library/spectre/CheckMOSstat.scs
Reading file:  /CASNFSHOME/home/tsaikaterini/IHP/IHP_Generation_files/130ng/SG13S_618_rev1.12.15/tech/SG13_MOS/library/spectre/CheckMOSdyn.scs
Reading file:  /CASNFSHOME/home/tsaikaterini/IHP/IHP_Generation_files/130ng/SG13S_618_rev1.12.15/tech/SG13_ESD/spectre/SG13_esd.lib
Reading file:  /CASNFSHOME/home/tsaikaterini/IHP/IHP_Generation_files/130ng/SG13S_618_rev1.12.15/tech/SG13_PASSIVES/spectre/SG13_cornerTSV.scs
Reading file:  /CASNFSHOME/home/tsaikaterini/IHP/IHP_Generation_files/130ng/SG13S_618_rev1.12.15/tech/SG13_PASSIVES/spectre/SG13_paramsTSV.scs
Reading file:  /CASNFSHOME/home/tsaikaterini/IHP/IHP_Generation_files/130ng/SG13S_618_rev1.12.15/tech/SG13_PASSIVES/spectre/SG13_tsv.lib
Reading file:  /CASNFSHOME/home/tsaikaterini/IHP/IHP_Generation_files/130ng/ixc013ng_stdcell_rc.scs
Time for NDB Parsing: CPU = 578.696 ms, elapsed = 1.52074 s.
Time accumulated: CPU = 709.903 ms, elapsed = 1.52075 s.
Peak resident memory used = 113 Mbytes.


Warning from spectre in `NO2JIX0':`nor1', during hierarchy flattening.
    WARNING (SFE-103): "/CASNFSHOME/home/tsaikaterini/IHP/IHP_Generation_files/130ng/ixc013ng_stdcell_rc.scs" 28325: Subcircuit parameter `nrd', defined for subcircuit `sg13_lv_pmos', has been ignored because it is invalid. Check the parameters that are defined for the instantiated subcircuit and rerun the simulation.
    WARNING (SFE-103): "/CASNFSHOME/home/tsaikaterini/IHP/IHP_Generation_files/130ng/ixc013ng_stdcell_rc.scs" 28325: Subcircuit parameter `nrs', defined for subcircuit `sg13_lv_pmos', has been ignored because it is invalid. Check the parameters that are defined for the instantiated subcircuit and rerun the simulation.
    WARNING (SFE-103): "/CASNFSHOME/home/tsaikaterini/IHP/IHP_Generation_files/130ng/ixc013ng_stdcell_rc.scs" 28328: Subcircuit parameter `nrd', defined for subcircuit `sg13_lv_pmos', has been ignored because it is invalid. Check the parameters that are defined for the instantiated subcircuit and rerun the simulation.
    WARNING (SFE-103): "/CASNFSHOME/home/tsaikaterini/IHP/IHP_Generation_files/130ng/ixc013ng_stdcell_rc.scs" 28328: Subcircuit parameter `nrs', defined for subcircuit `sg13_lv_pmos', has been ignored because it is invalid. Check the parameters that are defined for the instantiated subcircuit and rerun the simulation.
    WARNING (SFE-103): "/CASNFSHOME/home/tsaikaterini/IHP/IHP_Generation_files/130ng/ixc013ng_stdcell_rc.scs" 28330: Subcircuit parameter `nrd', defined for subcircuit `sg13_lv_nmos', has been ignored because it is invalid. Check the parameters that are defined for the instantiated subcircuit and rerun the simulation.
        Further occurrences of this warning will be suppressed.

Time for Elaboration: CPU = 45.303 ms, elapsed = 185.001 ms.
Time accumulated: CPU = 755.419 ms, elapsed = 1.70737 s.
Peak resident memory used = 122 Mbytes.


Notice from spectre in `NO2JIX0':`nor1', during hierarchy flattening.
    nor1.c5: Terminals are connected together (to node `VSS').
Notice from spectre in `NO2JIX0':`nor2', during hierarchy flattening.
    nor2.c5: Terminals are connected together (to node `VSS').
Notice from spectre in `NO2JIX0':`nor3', during hierarchy flattening.
    nor3.c5: Terminals are connected together (to node `VSS').
Notice from spectre in `NO2JIX0':`nor4', during hierarchy flattening.
    nor4.c5: Terminals are connected together (to node `VSS').
Notice from spectre in `NO2JIX0':`nor5', during hierarchy flattening.
    nor5.c5: Terminals are connected together (to node `VSS').
        Further occurrences of this notice will be suppressed.

Loading /CASNFSHOME/home/edatools/cadence/2023-24/RHELx86/SPECTRE_23.10.242/tools.lnx86/mdl/lib/64bit/libSpectreEH_sh.so ...

Time for EDB Visiting: CPU = 45.393 ms, elapsed = 50.5128 ms.
Time accumulated: CPU = 801.032 ms, elapsed = 1.75991 s.
Peak resident memory used = 131 Mbytes.


Warning from spectre during initial setup.
    WARNING (SPECTRE-17237): Assert violations will be written to the sqldb file because the 'checklimitdest' option has not been specified.
    WARNING (SPECTRE-17607): Assert `check_sg13s_lv_nmosHV_vgs' is ignored because it contains an expression which is not supported by native evaluator. 
    WARNING (SPECTRE-17607): Assert `check_sg13s_lv_nmosHV_vgd' is ignored because it contains an expression which is not supported by native evaluator. 
    WARNING (SPECTRE-17607): Assert `check_sg13s_lv_nmosHV_vds' is ignored because it contains an expression which is not supported by native evaluator. 
    WARNING (SPECTRE-17607): Assert `check_sg13s_lv_nmosHV_vdb' is ignored because it contains an expression which is not supported by native evaluator. 
    WARNING (SPECTRE-17607): Assert `check_sg13s_lv_nmosHV_vgb' is ignored because it contains an expression which is not supported by native evaluator. 
        Further occurrences of this warning will be suppressed.


Global user options:
               temp = 0

Scoped user options:

Circuit inventory:
              nodes 563
          capacitor 680   
          pspnqs103 160   
           resistor 480   
            vsource 3     

Analysis and control statement inventory:
         altergroup 146   
               tran 147   

Output statements:
             .probe 0     
           .measure 3     
               save 0     

Design checks inventory:
          paramtest 640   
             assert 40    


Notice from spectre.
    35 notices suppressed.
    322 warnings suppressed.

Time for parsing: CPU = 29.986 ms, elapsed = 1.58771 s.
Time accumulated: CPU = 831.231 ms, elapsed = 3.34972 s.
Peak resident memory used = 134 Mbytes.

~~~~~~~~~~~~~~~~~~~~~~
Pre-Simulation Summary
~~~~~~~~~~~~~~~~~~~~~~
~~~~~~~~~~~~~~~~~~~~~~

Notice from spectre during transient analysis `transient1'.
    No checklimit analysis defined for asserts. A default checklimit analysis 'SpectreChecklimitAnal' has been created with all asserts enabled.


*****************************************************
Transient Analysis `transient1': time = (0 s -> 2 ns)
*****************************************************

Notice from spectre during IC analysis `timeSweep', during transient analysis `transient1'.
    GminDC = 1 pS is large enough to noticeably affect the DC solution.
        dV(nor4.net16) = 10.4918 mV
        Use the `gmin_check' option to eliminate or expand this report.

DC simulation time: CPU = 16.351 ms, elapsed = 18.0809 ms.

Notice from spectre during transient analysis `transient1'.
    No outputs were found. Loosening output filter criterion to `allpub'.


Opening the PSFXL file ./nor_tt.raw/transient1.tran.tran ...
Important parameter values:
    start = 0 s
    outputstart = 0 s
    stop = 2 ns
    step = 100 fs
    maxstep = 40 ps
    ic = all
    useprevic = no
    skipdc = no
    reltol = 1e-03
    abstol(V) = 1 uV
    abstol(I) = 1 pA
    temp = 0 C
    tnom = 27 C
    tempeffects = all
    errpreset = moderate
    method = traponly
    lteratio = 3.5
    relref = sigglobal
    cmin = 0 F
    gmin = 1 pS


Output and IC/nodeset summary:
                 probe  2       
                 save   3       (current)
                 save   563     (voltage)

.

Notice from spectre at time = 70.468 ps during transient analysis `transient1'.
    Found trapezoidal ringing on node VGND:p.

......9......8......7......6......5......4......3......2......1......0
Number of accepted tran steps =             210

Notice from spectre during transient analysis `transient1'.
    Trapezoidal ringing is detected during tran analysis.
        Please use method=trap for better results and performance.


Maximum value achieved for any signal of each quantity: 
V: V(nor10_fanout4.nor11.net16) = 996.3 mV
I: I(VVDD:p) = 128.7 uA
If your circuit contains signals of the same quantity that are vastly different in size (such as high voltage circuitry combined with low voltage control circuitry), you should consider specifying global option `bin_relref=yes'.

~~~~~~~~~~~~~~~~~~~~~~~~~~~~~~~~~
Post-Transient Simulation Summary
~~~~~~~~~~~~~~~~~~~~~~~~~~~~~~~~~
   -   To further speed up simulation, consider
          add ++aps on command line
~~~~~~~~~~~~~~~~~~~~~~~~~~~~~~~~~


During simulation, the CPU load for active processors is :
         0 (3.2 %)       1 (100.0 %)     2 (18.8 %)      3 (2.7 %)
         4 (5.9 %)       5 (2.0 %)       6 (5.1 %)       7 (10.5 %)
         8 (100.0 %)     9 (24.9 %)     10 (2.7 %)      11 (2.0 %)
        Total: 277.7%
Initial condition solution time: CPU = 16.45 ms, elapsed = 18.6181 ms.
Intrinsic tran analysis time:    CPU = 663.848 ms, elapsed = 733.68 ms.
Opening measure  file:  /CASNFSHOME2/home/sstatthoudakis/Documents/spectre/Gates/NOR2/nor_validate/corners/corner_pin2/gate_load/nor_tt.measure
Opening mt file:  /CASNFSHOME2/home/sstatthoudakis/Documents/spectre/Gates/NOR2/nor_validate/corners/corner_pin2/gate_load/nor_tt.mt0
Total time required for tran analysis `transient1': CPU = 766.037 ms, elapsed = 1.02073 s, util. = 75%.
Time accumulated: CPU = 1.63944 s, elapsed = 4.48566 s.
Peak resident memory used = 147 Mbytes.


*************************
Alter Group `altergroup1'
*************************
Time for altergroup1: CPU = 32.2 ms, elapsed = 32.742 ms.
Time accumulated: CPU = 1.67204 s, elapsed = 4.52088 s.
Peak resident memory used = 147 Mbytes.


*****************************************************
Transient Analysis `transient2': time = (0 s -> 2 ns)
*****************************************************

Notice from spectre during IC analysis `timeSweep_cloned_1', during transient analysis `transient2'.
    GminDC = 1 pS is large enough to noticeably affect the DC solution.
        dV(nor6.net16) = 1.50521 mV
        Use the `gmin_check' option to eliminate or expand this report.

DC simulation time: CPU = 12.924 ms, elapsed = 14.7491 ms.

Notice from spectre during transient analysis `transient2'.
    No outputs were found. Loosening output filter criterion to `allpub'.


Opening the PSFXL file ./nor_tt.raw/transient2.tran.tran ...
Important parameter values:
    start = 0 s
    outputstart = 0 s
    stop = 2 ns
    step = 100 fs
    maxstep = 40 ps
    ic = all
    useprevic = no
    skipdc = no
    reltol = 1e-03
    abstol(V) = 1 uV
    abstol(I) = 1 pA
    temp = 50 C
    tnom = 27 C
    tempeffects = all
    errpreset = moderate
    method = traponly
    lteratio = 3.5
    relref = sigglobal
    cmin = 0 F
    gmin = 1 pS


Output and IC/nodeset summary:
                 probe  2       
                 save   3       (current)
                 save   563     (voltage)

.

Notice from spectre at time = 69.9223 ps during transient analysis `transient2'.
    Found trapezoidal ringing on node VGND:p.

......9......8......7......6......5......4......3......2......1......0
Number of accepted tran steps =             204

Notice from spectre during transient analysis `transient2'.
    Trapezoidal ringing is detected during tran analysis.
        Please use method=trap for better results and performance.


Maximum value achieved for any signal of each quantity: 
V: V(nor10_fanout4.nor12.net16) = 989.3 mV
I: I(VVDD:p) = 122.5 uA
If your circuit contains signals of the same quantity that are vastly different in size (such as high voltage circuitry combined with low voltage control circuitry), you should consider specifying global option `bin_relref=yes'.

~~~~~~~~~~~~~~~~~~~~~~~~~~~~~~~~~
Post-Transient Simulation Summary
~~~~~~~~~~~~~~~~~~~~~~~~~~~~~~~~~
   -   To further speed up simulation, consider
          add ++aps on command line
~~~~~~~~~~~~~~~~~~~~~~~~~~~~~~~~~


During simulation, the CPU load for active processors is :
         0 (2.5 %)       1 (100.0 %)     2 (22.2 %)      3 (2.5 %)
         4 (4.8 %)       5 (2.0 %)       6 (4.7 %)       7 (8.5 %)
         8 (100.0 %)     9 (33.4 %)     10 (2.5 %)      11 (1.7 %)
        Total: 284.9%
Initial condition solution time: CPU = 13.002 ms, elapsed = 15.0919 ms.
Intrinsic tran analysis time:    CPU = 531.384 ms, elapsed = 637.775 ms.
Opening mt file:  /CASNFSHOME2/home/sstatthoudakis/Documents/spectre/Gates/NOR2/nor_validate/corners/corner_pin2/gate_load/nor_tt.mt1
Total time required for tran analysis `transient2': CPU = 556.532 ms, elapsed = 710.323 ms, util. = 78.3%.
Time accumulated: CPU = 2.24243 s, elapsed = 5.31688 s.
Peak resident memory used = 148 Mbytes.


*************************
Alter Group `altergroup2'
*************************
Time for altergroup2: CPU = 20.789 ms, elapsed = 21.1859 ms.
Time accumulated: CPU = 2.26347 s, elapsed = 5.33942 s.
Peak resident memory used = 148 Mbytes.


*****************************************************
Transient Analysis `transient3': time = (0 s -> 2 ns)
*****************************************************
DC simulation time: CPU = 13.511 ms, elapsed = 13.5128 ms.

Notice from spectre during transient analysis `transient3'.
    No outputs were found. Loosening output filter criterion to `allpub'.


Opening the PSFXL file ./nor_tt.raw/transient3.tran.tran ...
Important parameter values:
    start = 0 s
    outputstart = 0 s
    stop = 2 ns
    step = 100 fs
    maxstep = 40 ps
    ic = all
    useprevic = no
    skipdc = no
    reltol = 1e-03
    abstol(V) = 1 uV
    abstol(I) = 1 pA
    temp = 125 C
    tnom = 27 C
    tempeffects = all
    errpreset = moderate
    method = traponly
    lteratio = 3.5
    relref = sigglobal
    cmin = 0 F
    gmin = 1 pS


Output and IC/nodeset summary:
                 probe  2       
                 save   3       (current)
                 save   563     (voltage)

......9......8......7......6......5......4......3......2......1......0
Number of accepted tran steps =             194

Maximum value achieved for any signal of each quantity: 
V: V(nor1.net16) = 982.3 mV
I: I(VVDD:p) = 169.5 uA
If your circuit contains signals of the same quantity that are vastly different in size (such as high voltage circuitry combined with low voltage control circuitry), you should consider specifying global option `bin_relref=yes'.

~~~~~~~~~~~~~~~~~~~~~~~~~~~~~~~~~
Post-Transient Simulation Summary
~~~~~~~~~~~~~~~~~~~~~~~~~~~~~~~~~
   -   To further speed up simulation, consider
          add ++aps on command line
~~~~~~~~~~~~~~~~~~~~~~~~~~~~~~~~~


During simulation, the CPU load for active processors is :
         0 (2.4 %)       1 (100.0 %)     2 (20.0 %)      3 (2.5 %)
         4 (4.7 %)       5 (2.4 %)       6 (4.4 %)       7 (8.4 %)
         8 (100.0 %)     9 (38.0 %)     10 (2.7 %)      11 (1.7 %)
        Total: 287.2%
Initial condition solution time: CPU = 13.606 ms, elapsed = 14.246 ms.
Intrinsic tran analysis time:    CPU = 481.039 ms, elapsed = 593.895 ms.
Opening mt file:  /CASNFSHOME2/home/sstatthoudakis/Documents/spectre/Gates/NOR2/nor_validate/corners/corner_pin2/gate_load/nor_tt.mt2
Total time required for tran analysis `transient3': CPU = 500.847 ms, elapsed = 631.834 ms, util. = 79.3%.
Time accumulated: CPU = 2.77668 s, elapsed = 6.05065 s.
Peak resident memory used = 148 Mbytes.


*************************
Alter Group `altergroup3'
*************************
Time for altergroup3: CPU = 17.587 ms, elapsed = 18.111 ms.
Time accumulated: CPU = 2.79439 s, elapsed = 6.0705 s.
Peak resident memory used = 148 Mbytes.


*****************************************************
Transient Analysis `transient4': time = (0 s -> 2 ns)
*****************************************************

Notice from spectre during IC analysis `timeSweep_cloned_3', during transient analysis `transient4'.
    GminDC = 1 pS is large enough to noticeably affect the DC solution.
        dV(nor6.net16) = 10.4923 mV
        Use the `gmin_check' option to eliminate or expand this report.

DC simulation time: CPU = 15.79 ms, elapsed = 19.2442 ms.

Notice from spectre during transient analysis `transient4'.
    No outputs were found. Loosening output filter criterion to `allpub'.


Opening the PSFXL file ./nor_tt.raw/transient4.tran.tran ...
Important parameter values:
    start = 0 s
    outputstart = 0 s
    stop = 2 ns
    step = 100 fs
    maxstep = 40 ps
    ic = all
    useprevic = no
    skipdc = no
    reltol = 1e-03
    abstol(V) = 1 uV
    abstol(I) = 1 pA
    temp = 0 C
    tnom = 27 C
    tempeffects = all
    errpreset = moderate
    method = traponly
    lteratio = 3.5
    relref = sigglobal
    cmin = 0 F
    gmin = 1 pS


Output and IC/nodeset summary:
                 probe  2       
                 save   3       (current)
                 save   563     (voltage)

.

Notice from spectre at time = 70.9127 ps during transient analysis `transient4'.
    Found trapezoidal ringing on node VGND:p.

......9......8......7......6......5......4......3....

Notice from spectre at time = 1.52216 ns during transient analysis `transient4'.
    Found trapezoidal ringing on node nor8.3:A.

......9......8......7......6......5......4......3......2......1......0
Number of accepted tran steps =             211

Notice from spectre during transient analysis `transient4'.
    Trapezoidal ringing is detected during tran analysis.
        Please use method=trap for better results and performance.


Maximum value achieved for any signal of each quantity: 
V: V(nor10_fanout4.nor12.net16) = 1.006 V
I: I(VVDD:p) = 135 uA
If your circuit contains signals of the same quantity that are vastly different in size (such as high voltage circuitry combined with low voltage control circuitry), you should consider specifying global option `bin_relref=yes'.

~~~~~~~~~~~~~~~~~~~~~~~~~~~~~~~~~
Post-Transient Simulation Summary
~~~~~~~~~~~~~~~~~~~~~~~~~~~~~~~~~
   -   To further speed up simulation, consider
          add ++aps on command line
~~~~~~~~~~~~~~~~~~~~~~~~~~~~~~~~~


During simulation, the CPU load for active processors is :
         0 (2.1 %)       1 (89.9 %)      2 (18.1 %)      3 (12.4 %)
         4 (4.3 %)       5 (2.4 %)       6 (4.3 %)       7 (8.2 %)
         8 (100.0 %)     9 (42.4 %)     10 (2.5 %)      11 (1.5 %)
        Total: 288.2%
Initial condition solution time: CPU = 15.852 ms, elapsed = 19.8729 ms.
Intrinsic tran analysis time:    CPU = 528.385 ms, elapsed = 612.643 ms.
Opening mt file:  /CASNFSHOME2/home/sstatthoudakis/Documents/spectre/Gates/NOR2/nor_validate/corners/corner_pin2/gate_load/nor_tt.mt3
Total time required for tran analysis `transient4': CPU = 551.309 ms, elapsed = 685.97 ms, util. = 80.4%.
Time accumulated: CPU = 3.35959 s, elapsed = 6.83517 s.
Peak resident memory used = 148 Mbytes.


*************************
Alter Group `altergroup4'
*************************
Time for altergroup4: CPU = 20.167 ms, elapsed = 20.6449 ms.
Time accumulated: CPU = 3.37989 s, elapsed = 6.85701 s.
Peak resident memory used = 148 Mbytes.


*****************************************************
Transient Analysis `transient5': time = (0 s -> 2 ns)
*****************************************************

Notice from spectre during IC analysis `timeSweep_cloned_4', during transient analysis `transient5'.
    GminDC = 1 pS is large enough to noticeably affect the DC solution.
        dV(nor6.net16) = 1.50638 mV
        Use the `gmin_check' option to eliminate or expand this report.

DC simulation time: CPU = 13.089 ms, elapsed = 14.5218 ms.

Notice from spectre during transient analysis `transient5'.
    No outputs were found. Loosening output filter criterion to `allpub'.


Opening the PSFXL file ./nor_tt.raw/transient5.tran.tran ...
Important parameter values:
    start = 0 s
    outputstart = 0 s
    stop = 2 ns
    step = 100 fs
    maxstep = 40 ps
    ic = all
    useprevic = no
    skipdc = no
    reltol = 1e-03
    abstol(V) = 1 uV
    abstol(I) = 1 pA
    temp = 50 C
    tnom = 27 C
    tempeffects = all
    errpreset = moderate
    method = traponly
    lteratio = 3.5
    relref = sigglobal
    cmin = 0 F
    gmin = 1 pS


Output and IC/nodeset summary:
                 probe  2       
                 save   3       (current)
                 save   563     (voltage)

.

Notice from spectre at time = 70.3005 ps during transient analysis `transient5'.
    Found trapezoidal ringing on node VGND:p.

......9......8......7......6......5......4......3....

Notice from spectre at time = 1.50942 ns during transient analysis `transient5'.
    Found trapezoidal ringing on node nor7_fanout4.nor12.3:A.

......9......8......7......6......5......4......3......2......1......0
Number of accepted tran steps =             207

Notice from spectre during transient analysis `transient5'.
    Trapezoidal ringing is detected during tran analysis.
        Please use method=trap for better results and performance.


Maximum value achieved for any signal of each quantity: 
V: V(nor10_fanout4.nor11.net16) = 999.1 mV
I: I(VVDD:p) = 148.9 uA
If your circuit contains signals of the same quantity that are vastly different in size (such as high voltage circuitry combined with low voltage control circuitry), you should consider specifying global option `bin_relref=yes'.

~~~~~~~~~~~~~~~~~~~~~~~~~~~~~~~~~
Post-Transient Simulation Summary
~~~~~~~~~~~~~~~~~~~~~~~~~~~~~~~~~
   -   To further speed up simulation, consider
          add ++aps on command line
~~~~~~~~~~~~~~~~~~~~~~~~~~~~~~~~~


During simulation, the CPU load for active processors is :
         0 (1.9 %)       1 (80.7 %)      2 (16.6 %)      3 (21.4 %)
         4 (4.4 %)       5 (2.3 %)       6 (4.4 %)       7 (7.4 %)
         8 (100.0 %)     9 (45.9 %)     10 (2.3 %)      11 (1.5 %)
        Total: 288.9%
Initial condition solution time: CPU = 13.182 ms, elapsed = 14.9498 ms.
Intrinsic tran analysis time:    CPU = 529.889 ms, elapsed = 606.657 ms.
Opening mt file:  /CASNFSHOME2/home/sstatthoudakis/Documents/spectre/Gates/NOR2/nor_validate/corners/corner_pin2/gate_load/nor_tt.mt4
Total time required for tran analysis `transient5': CPU = 552.657 ms, elapsed = 676.303 ms, util. = 81.7%.
Time accumulated: CPU = 3.96106 s, elapsed = 7.63067 s.
Peak resident memory used = 148 Mbytes.


*************************
Alter Group `altergroup5'
*************************
Time for altergroup5: CPU = 21.402 ms, elapsed = 21.764 ms.
Time accumulated: CPU = 3.9828 s, elapsed = 7.65406 s.
Peak resident memory used = 148 Mbytes.


*****************************************************
Transient Analysis `transient6': time = (0 s -> 2 ns)
*****************************************************
DC simulation time: CPU = 13.38 ms, elapsed = 13.3822 ms.

Notice from spectre during transient analysis `transient6'.
    No outputs were found. Loosening output filter criterion to `allpub'.


Opening the PSFXL file ./nor_tt.raw/transient6.tran.tran ...
Important parameter values:
    start = 0 s
    outputstart = 0 s
    stop = 2 ns
    step = 100 fs
    maxstep = 40 ps
    ic = all
    useprevic = no
    skipdc = no
    reltol = 1e-03
    abstol(V) = 1 uV
    abstol(I) = 1 pA
    temp = 125 C
    tnom = 27 C
    tempeffects = all
    errpreset = moderate
    method = traponly
    lteratio = 3.5
    relref = sigglobal
    cmin = 0 F
    gmin = 1 pS


Output and IC/nodeset summary:
                 probe  2       
                 save   3       (current)
                 save   563     (voltage)

......9......8......7......6......5......4......3......2......1......0
Number of accepted tran steps =             199

Maximum value achieved for any signal of each quantity: 
V: V(nor10_fanout4.nor11.2:Q) = 992.4 mV
I: I(VVDD:p) = 188.6 uA
If your circuit contains signals of the same quantity that are vastly different in size (such as high voltage circuitry combined with low voltage control circuitry), you should consider specifying global option `bin_relref=yes'.

~~~~~~~~~~~~~~~~~~~~~~~~~~~~~~~~~
Post-Transient Simulation Summary
~~~~~~~~~~~~~~~~~~~~~~~~~~~~~~~~~
   -   To further speed up simulation, consider
          add ++aps on command line
~~~~~~~~~~~~~~~~~~~~~~~~~~~~~~~~~


During simulation, the CPU load for active processors is :
         0 (1.8 %)       1 (72.9 %)      2 (15.0 %)      3 (29.1 %)
         4 (4.0 %)       5 (2.1 %)       6 (4.4 %)       7 (6.8 %)
         8 (100.0 %)     9 (49.0 %)     10 (2.5 %)      11 (1.7 %)
        Total: 289.3%
Initial condition solution time: CPU = 13.457 ms, elapsed = 13.9802 ms.
Intrinsic tran analysis time:    CPU = 530.79 ms, elapsed = 609.451 ms.
Opening mt file:  /CASNFSHOME2/home/sstatthoudakis/Documents/spectre/Gates/NOR2/nor_validate/corners/corner_pin2/gate_load/nor_tt.mt5
Total time required for tran analysis `transient6': CPU = 552.981 ms, elapsed = 677.935 ms, util. = 81.6%.
Time accumulated: CPU = 4.55003 s, elapsed = 8.43418 s.
Peak resident memory used = 148 Mbytes.


*************************
Alter Group `altergroup6'
*************************
Time for altergroup6: CPU = 20.794 ms, elapsed = 21.488 ms.
Time accumulated: CPU = 4.57105 s, elapsed = 8.45798 s.
Peak resident memory used = 148 Mbytes.


*****************************************************
Transient Analysis `transient7': time = (0 s -> 2 ns)
*****************************************************

Notice from spectre during IC analysis `timeSweep_cloned_6', during transient analysis `transient7'.
    GminDC = 1 pS is large enough to noticeably affect the DC solution.
        dV(nor6.net16) = 10.4916 mV
        Use the `gmin_check' option to eliminate or expand this report.

DC simulation time: CPU = 17.676 ms, elapsed = 19.3551 ms.

Notice from spectre during transient analysis `transient7'.
    No outputs were found. Loosening output filter criterion to `allpub'.


Opening the PSFXL file ./nor_tt.raw/transient7.tran.tran ...
Important parameter values:
    start = 0 s
    outputstart = 0 s
    stop = 2 ns
    step = 100 fs
    maxstep = 40 ps
    ic = all
    useprevic = no
    skipdc = no
    reltol = 1e-03
    abstol(V) = 1 uV
    abstol(I) = 1 pA
    temp = 0 C
    tnom = 27 C
    tempeffects = all
    errpreset = moderate
    method = traponly
    lteratio = 3.5
    relref = sigglobal
    cmin = 0 F
    gmin = 1 pS


Output and IC/nodeset summary:
                 probe  2       
                 save   3       (current)
                 save   563     (voltage)

.

Notice from spectre at time = 71.3673 ps during transient analysis `transient7'.
    Found trapezoidal ringing on node VGND:p.

......9......8......7......6......5......4......3......2......1......0
Number of accepted tran steps =             209

Notice from spectre during transient analysis `transient7'.
    Trapezoidal ringing is detected during tran analysis.
        Please use method=trap for better results and performance.


Maximum value achieved for any signal of each quantity: 
V: V(nor10_fanout4.nor13.net16) = 1.016 V
I: I(VVDD:p) = 175.2 uA
If your circuit contains signals of the same quantity that are vastly different in size (such as high voltage circuitry combined with low voltage control circuitry), you should consider specifying global option `bin_relref=yes'.

~~~~~~~~~~~~~~~~~~~~~~~~~~~~~~~~~
Post-Transient Simulation Summary
~~~~~~~~~~~~~~~~~~~~~~~~~~~~~~~~~
   -   To further speed up simulation, consider
          add ++aps on command line
~~~~~~~~~~~~~~~~~~~~~~~~~~~~~~~~~


During simulation, the CPU load for active processors is :
         0 (1.9 %)       1 (66.6 %)      2 (13.8 %)      3 (35.7 %)
         4 (4.3 %)       5 (9.0 %)       6 (4.4 %)       7 (6.3 %)
         8 (100.0 %)     9 (44.7 %)     10 (2.5 %)      11 (2.0 %)
        Total: 291.0%
Initial condition solution time: CPU = 17.738 ms, elapsed = 19.7392 ms.
Intrinsic tran analysis time:    CPU = 570.032 ms, elapsed = 646.522 ms.
Opening mt file:  /CASNFSHOME2/home/sstatthoudakis/Documents/spectre/Gates/NOR2/nor_validate/corners/corner_pin2/gate_load/nor_tt.mt6
Total time required for tran analysis `transient7': CPU = 595.908 ms, elapsed = 720.155 ms, util. = 82.7%.
Time accumulated: CPU = 5.18076 s, elapsed = 9.27559 s.
Peak resident memory used = 148 Mbytes.


*************************
Alter Group `altergroup7'
*************************
Time for altergroup7: CPU = 20.53 ms, elapsed = 21.085 ms.
Time accumulated: CPU = 5.20142 s, elapsed = 9.29851 s.
Peak resident memory used = 148 Mbytes.


*****************************************************
Transient Analysis `transient8': time = (0 s -> 2 ns)
*****************************************************

Notice from spectre during IC analysis `timeSweep_cloned_7', during transient analysis `transient8'.
    GminDC = 1 pS is large enough to noticeably affect the DC solution.
        dV(nor6.net16) = 1.50737 mV
        Use the `gmin_check' option to eliminate or expand this report.

DC simulation time: CPU = 14.233 ms, elapsed = 16.2499 ms.

Notice from spectre during transient analysis `transient8'.
    No outputs were found. Loosening output filter criterion to `allpub'.


Opening the PSFXL file ./nor_tt.raw/transient8.tran.tran ...
Important parameter values:
    start = 0 s
    outputstart = 0 s
    stop = 2 ns
    step = 100 fs
    maxstep = 40 ps
    ic = all
    useprevic = no
    skipdc = no
    reltol = 1e-03
    abstol(V) = 1 uV
    abstol(I) = 1 pA
    temp = 50 C
    tnom = 27 C
    tempeffects = all
    errpreset = moderate
    method = traponly
    lteratio = 3.5
    relref = sigglobal
    cmin = 0 F
    gmin = 1 pS


Output and IC/nodeset summary:
                 probe  2       
                 save   3       (current)
                 save   563     (voltage)

.

Notice from spectre at time = 70.6865 ps during transient analysis `transient8'.
    Found trapezoidal ringing on node VGND:p.

......9......8......7......6......5......4......3......2......1......0
Number of accepted tran steps =             210

Notice from spectre during transient analysis `transient8'.
    Trapezoidal ringing is detected during tran analysis.
        Please use method=trap for better results and performance.


Maximum value achieved for any signal of each quantity: 
V: V(nor10_fanout4.nor12.net16) = 1.009 V
I: I(VVDD:p) = 180.5 uA
If your circuit contains signals of the same quantity that are vastly different in size (such as high voltage circuitry combined with low voltage control circuitry), you should consider specifying global option `bin_relref=yes'.

~~~~~~~~~~~~~~~~~~~~~~~~~~~~~~~~~
Post-Transient Simulation Summary
~~~~~~~~~~~~~~~~~~~~~~~~~~~~~~~~~
   -   To further speed up simulation, consider
          add ++aps on command line
~~~~~~~~~~~~~~~~~~~~~~~~~~~~~~~~~


During simulation, the CPU load for active processors is :
         0 (1.8 %)       1 (60.9 %)      2 (12.7 %)      3 (41.1 %)
         4 (4.2 %)       5 (14.8 %)      6 (4.4 %)       7 (5.8 %)
         8 (100.0 %)     9 (41.0 %)     10 (3.1 %)      11 (2.2 %)
        Total: 292.1%
Initial condition solution time: CPU = 14.299 ms, elapsed = 16.8099 ms.
Intrinsic tran analysis time:    CPU = 577.967 ms, elapsed = 647.991 ms.
Opening mt file:  /CASNFSHOME2/home/sstatthoudakis/Documents/spectre/Gates/NOR2/nor_validate/corners/corner_pin2/gate_load/nor_tt.mt7
Total time required for tran analysis `transient8': CPU = 600.558 ms, elapsed = 718.597 ms, util. = 83.6%.
Time accumulated: CPU = 5.81608 s, elapsed = 10.0894 s.
Peak resident memory used = 148 Mbytes.


*************************
Alter Group `altergroup8'
*************************
Time for altergroup8: CPU = 23.086 ms, elapsed = 23.571 ms.
Time accumulated: CPU = 5.83931 s, elapsed = 10.1142 s.
Peak resident memory used = 148 Mbytes.


*****************************************************
Transient Analysis `transient9': time = (0 s -> 2 ns)
*****************************************************
DC simulation time: CPU = 14.849 ms, elapsed = 14.852 ms.

Notice from spectre during transient analysis `transient9'.
    No outputs were found. Loosening output filter criterion to `allpub'.


Opening the PSFXL file ./nor_tt.raw/transient9.tran.tran ...
Important parameter values:
    start = 0 s
    outputstart = 0 s
    stop = 2 ns
    step = 100 fs
    maxstep = 40 ps
    ic = all
    useprevic = no
    skipdc = no
    reltol = 1e-03
    abstol(V) = 1 uV
    abstol(I) = 1 pA
    temp = 125 C
    tnom = 27 C
    tempeffects = all
    errpreset = moderate
    method = traponly
    lteratio = 3.5
    relref = sigglobal
    cmin = 0 F
    gmin = 1 pS


Output and IC/nodeset summary:
                 probe  2       
                 save   3       (current)
                 save   563     (voltage)

......9......8......7......6......5......4......3......2......1......0
Number of accepted tran steps =             199

Maximum value achieved for any signal of each quantity: 
V: V(nor10_fanout4.nor13.2:Q) = 1.003 V
I: I(VVDD:p) = 198.7 uA
If your circuit contains signals of the same quantity that are vastly different in size (such as high voltage circuitry combined with low voltage control circuitry), you should consider specifying global option `bin_relref=yes'.

~~~~~~~~~~~~~~~~~~~~~~~~~~~~~~~~~
Post-Transient Simulation Summary
~~~~~~~~~~~~~~~~~~~~~~~~~~~~~~~~~
   -   To further speed up simulation, consider
          add ++aps on command line
~~~~~~~~~~~~~~~~~~~~~~~~~~~~~~~~~


During simulation, the CPU load for active processors is :
         0 (1.7 %)       1 (56.9 %)      2 (12.0 %)      3 (45.3 %)
         4 (5.0 %)       5 (19.5 %)      6 (4.5 %)       7 (6.2 %)
         8 (100.0 %)     9 (38.0 %)     10 (2.9 %)      11 (2.2 %)
        Total: 294.3%
Initial condition solution time: CPU = 14.955 ms, elapsed = 15.4409 ms.
Intrinsic tran analysis time:    CPU = 545.905 ms, elapsed = 603.189 ms.
Opening mt file:  /CASNFSHOME2/home/sstatthoudakis/Documents/spectre/Gates/NOR2/nor_validate/corners/corner_pin2/gate_load/nor_tt.mt8
Total time required for tran analysis `transient9': CPU = 568.795 ms, elapsed = 669.392 ms, util. = 85%.
Time accumulated: CPU = 6.4236 s, elapsed = 10.8655 s.
Peak resident memory used = 148 Mbytes.


*************************
Alter Group `altergroup9'
*************************
Time for altergroup9: CPU = 22.791 ms, elapsed = 23.1259 ms.
Time accumulated: CPU = 6.44657 s, elapsed = 10.8898 s.
Peak resident memory used = 148 Mbytes.


******************************************************
Transient Analysis `transient10': time = (0 s -> 2 ns)
******************************************************

Notice from spectre during IC analysis `timeSweep_cloned_9', during transient analysis `transient10'.
    GminDC = 1 pS is large enough to noticeably affect the DC solution.
        dV(nor9_fanout4.nor11.net16) = 10.4438 mV
        Use the `gmin_check' option to eliminate or expand this report.

DC simulation time: CPU = 23.318 ms, elapsed = 24.8492 ms.

Notice from spectre during transient analysis `transient10'.
    No outputs were found. Loosening output filter criterion to `allpub'.


Opening the PSFXL file ./nor_tt.raw/transient10.tran.tran ...
Important parameter values:
    start = 0 s
    outputstart = 0 s
    stop = 2 ns
    step = 100 fs
    maxstep = 40 ps
    ic = all
    useprevic = no
    skipdc = no
    reltol = 1e-03
    abstol(V) = 1 uV
    abstol(I) = 1 pA
    temp = 0 C
    tnom = 27 C
    tempeffects = all
    errpreset = moderate
    method = traponly
    lteratio = 3.5
    relref = sigglobal
    cmin = 0 F
    gmin = 1 pS


Output and IC/nodeset summary:
                 probe  2       
                 save   3       (current)
                 save   563     (voltage)

..

Notice from spectre at time = 71.8315 ps during transient analysis `transient10'.
    Found trapezoidal ringing on node VGND:p.

......9......8......7......6......5......4......3......2......1......0
Number of accepted tran steps =             215

Notice from spectre during transient analysis `transient10'.
    Trapezoidal ringing is detected during tran analysis.
        Please use method=trap for better results and performance.


Maximum value achieved for any signal of each quantity: 
V: V(nor10_fanout4.nor11.net16) = 1.025 V
I: I(VVDD:p) = 201.4 uA
If your circuit contains signals of the same quantity that are vastly different in size (such as high voltage circuitry combined with low voltage control circuitry), you should consider specifying global option `bin_relref=yes'.

~~~~~~~~~~~~~~~~~~~~~~~~~~~~~~~~~
Post-Transient Simulation Summary
~~~~~~~~~~~~~~~~~~~~~~~~~~~~~~~~~
   -   To further speed up simulation, consider
          add ++aps on command line
~~~~~~~~~~~~~~~~~~~~~~~~~~~~~~~~~


During simulation, the CPU load for active processors is :
         0 (2.7 %)       1 (52.7 %)      2 (11.1 %)      3 (49.4 %)
         4 (4.7 %)       5 (19.9 %)      6 (5.3 %)       7 (10.5 %)
         8 (96.9 %)      9 (35.2 %)     10 (2.7 %)      11 (4.4 %)
        Total: 295.4%
Initial condition solution time: CPU = 23.387 ms, elapsed = 25.1808 ms.
Intrinsic tran analysis time:    CPU = 636.674 ms, elapsed = 694.378 ms.
Opening mt file:  /CASNFSHOME2/home/sstatthoudakis/Documents/spectre/Gates/NOR2/nor_validate/corners/corner_pin2/gate_load/nor_tt.mt9
Total time required for tran analysis `transient10': CPU = 670.988 ms, elapsed = 773.406 ms, util. = 86.8%.
Time accumulated: CPU = 7.13328 s, elapsed = 11.7471 s.
Peak resident memory used = 148 Mbytes.


**************************
Alter Group `altergroup10'
**************************
Time for altergroup10: CPU = 27.378 ms, elapsed = 28.2199 ms.
Time accumulated: CPU = 7.16084 s, elapsed = 11.7768 s.
Peak resident memory used = 148 Mbytes.


******************************************************
Transient Analysis `transient11': time = (0 s -> 2 ns)
******************************************************

Notice from spectre during IC analysis `timeSweep_cloned_10', during transient analysis `transient11'.
    GminDC = 1 pS is large enough to noticeably affect the DC solution.
        dV(nor6.net16) = 1.50817 mV
        Use the `gmin_check' option to eliminate or expand this report.

DC simulation time: CPU = 15.874 ms, elapsed = 18.039 ms.

Notice from spectre during transient analysis `transient11'.
    No outputs were found. Loosening output filter criterion to `allpub'.


Opening the PSFXL file ./nor_tt.raw/transient11.tran.tran ...
Important parameter values:
    start = 0 s
    outputstart = 0 s
    stop = 2 ns
    step = 100 fs
    maxstep = 40 ps
    ic = all
    useprevic = no
    skipdc = no
    reltol = 1e-03
    abstol(V) = 1 uV
    abstol(I) = 1 pA
    temp = 50 C
    tnom = 27 C
    tempeffects = all
    errpreset = moderate
    method = traponly
    lteratio = 3.5
    relref = sigglobal
    cmin = 0 F
    gmin = 1 pS


Output and IC/nodeset summary:
                 probe  2       
                 save   3       (current)
                 save   563     (voltage)

.

Notice from spectre at time = 71.08 ps during transient analysis `transient11'.
    Found trapezoidal ringing on node VGND:p.

......9......8......7......6......5......4......3......2......1......0
Number of accepted tran steps =             211

Notice from spectre during transient analysis `transient11'.
    Trapezoidal ringing is detected during tran analysis.
        Please use method=trap for better results and performance.


Maximum value achieved for any signal of each quantity: 
V: V(nor10_fanout4.nor11.net16) = 1.019 V
I: I(VVDD:p) = 201.1 uA
If your circuit contains signals of the same quantity that are vastly different in size (such as high voltage circuitry combined with low voltage control circuitry), you should consider specifying global option `bin_relref=yes'.

~~~~~~~~~~~~~~~~~~~~~~~~~~~~~~~~~
Post-Transient Simulation Summary
~~~~~~~~~~~~~~~~~~~~~~~~~~~~~~~~~
   -   To further speed up simulation, consider
          add ++aps on command line
~~~~~~~~~~~~~~~~~~~~~~~~~~~~~~~~~


During simulation, the CPU load for active processors is :
         0 (2.6 %)       1 (49.3 %)      2 (10.8 %)      3 (52.7 %)
         4 (4.4 %)       5 (19.0 %)      6 (5.0 %)       7 (15.0 %)
         8 (91.8 %)      9 (33.4 %)     10 (2.7 %)      11 (10.6 %)
        Total: 297.1%
Initial condition solution time: CPU = 15.942 ms, elapsed = 18.4362 ms.
Intrinsic tran analysis time:    CPU = 557.952 ms, elapsed = 614.658 ms.
Opening mt file:  /CASNFSHOME2/home/sstatthoudakis/Documents/spectre/Gates/NOR2/nor_validate/corners/corner_pin2/gate_load/nor_tt.mt10
Total time required for tran analysis `transient11': CPU = 586.259 ms, elapsed = 691.7 ms, util. = 84.8%.
Time accumulated: CPU = 7.76 s, elapsed = 12.556 s.
Peak resident memory used = 148 Mbytes.


**************************
Alter Group `altergroup11'
**************************
Time for altergroup11: CPU = 17.656 ms, elapsed = 18.048 ms.
Time accumulated: CPU = 7.77778 s, elapsed = 12.5753 s.
Peak resident memory used = 148 Mbytes.


******************************************************
Transient Analysis `transient12': time = (0 s -> 2 ns)
******************************************************
DC simulation time: CPU = 13.474 ms, elapsed = 13.4799 ms.

Notice from spectre during transient analysis `transient12'.
    No outputs were found. Loosening output filter criterion to `allpub'.


Opening the PSFXL file ./nor_tt.raw/transient12.tran.tran ...
Important parameter values:
    start = 0 s
    outputstart = 0 s
    stop = 2 ns
    step = 100 fs
    maxstep = 40 ps
    ic = all
    useprevic = no
    skipdc = no
    reltol = 1e-03
    abstol(V) = 1 uV
    abstol(I) = 1 pA
    temp = 125 C
    tnom = 27 C
    tempeffects = all
    errpreset = moderate
    method = traponly
    lteratio = 3.5
    relref = sigglobal
    cmin = 0 F
    gmin = 1 pS


Output and IC/nodeset summary:
                 probe  2       
                 save   3       (current)
                 save   563     (voltage)

......9......8......7......6......5......4......3......2......1......0
Number of accepted tran steps =             214

Maximum value achieved for any signal of each quantity: 
V: V(nor10_fanout4.nor13.2:Q) = 1.013 V
I: I(VVDD:p) = 199.9 uA
If your circuit contains signals of the same quantity that are vastly different in size (such as high voltage circuitry combined with low voltage control circuitry), you should consider specifying global option `bin_relref=yes'.

~~~~~~~~~~~~~~~~~~~~~~~~~~~~~~~~~
Post-Transient Simulation Summary
~~~~~~~~~~~~~~~~~~~~~~~~~~~~~~~~~
   -   To further speed up simulation, consider
          add ++aps on command line
~~~~~~~~~~~~~~~~~~~~~~~~~~~~~~~~~


During simulation, the CPU load for active processors is :
         0 (2.6 %)       1 (46.3 %)      2 (10.2 %)      3 (55.6 %)
         4 (4.1 %)       5 (17.9 %)      6 (5.0 %)       7 (18.6 %)
         8 (86.6 %)      9 (31.7 %)     10 (2.5 %)      11 (16.0 %)
        Total: 297.1%
Initial condition solution time: CPU = 13.548 ms, elapsed = 14.272 ms.
Intrinsic tran analysis time:    CPU = 554.242 ms, elapsed = 618.212 ms.
Opening mt file:  /CASNFSHOME2/home/sstatthoudakis/Documents/spectre/Gates/NOR2/nor_validate/corners/corner_pin2/gate_load/nor_tt.mt11
Total time required for tran analysis `transient12': CPU = 574.382 ms, elapsed = 674.007 ms, util. = 85.2%.
Time accumulated: CPU = 8.36481 s, elapsed = 13.3244 s.
Peak resident memory used = 148 Mbytes.


**************************
Alter Group `altergroup12'
**************************
Time for altergroup12: CPU = 17.903 ms, elapsed = 18.4979 ms.
Time accumulated: CPU = 8.38284 s, elapsed = 13.3447 s.
Peak resident memory used = 148 Mbytes.


******************************************************
Transient Analysis `transient13': time = (0 s -> 2 ns)
******************************************************

Notice from spectre during IC analysis `timeSweep_cloned_12', during transient analysis `transient13'.
    GminDC = 1 pS is large enough to noticeably affect the DC solution.
        dV(nor6.net16) = 10.4886 mV
        Use the `gmin_check' option to eliminate or expand this report.

DC simulation time: CPU = 13.672 ms, elapsed = 14.9949 ms.

Notice from spectre during transient analysis `transient13'.
    No outputs were found. Loosening output filter criterion to `allpub'.


Opening the PSFXL file ./nor_tt.raw/transient13.tran.tran ...
Important parameter values:
    start = 0 s
    outputstart = 0 s
    stop = 2 ns
    step = 100 fs
    maxstep = 40 ps
    ic = all
    useprevic = no
    skipdc = no
    reltol = 1e-03
    abstol(V) = 1 uV
    abstol(I) = 1 pA
    temp = 0 C
    tnom = 27 C
    tempeffects = all
    errpreset = moderate
    method = traponly
    lteratio = 3.5
    relref = sigglobal
    cmin = 0 F
    gmin = 1 pS


Output and IC/nodeset summary:
                 probe  2       
                 save   3       (current)
                 save   563     (voltage)

..

Notice from spectre at time = 72.3047 ps during transient analysis `transient13'.
    Found trapezoidal ringing on node VGND:p.

......9......8......7......6......5......4......3......2......1......0
Number of accepted tran steps =             215

Notice from spectre during transient analysis `transient13'.
    Trapezoidal ringing is detected during tran analysis.
        Please use method=trap for better results and performance.


Maximum value achieved for any signal of each quantity: 
V: V(nor10_fanout4.nor12.net16) = 1.035 V
I: I(VVDD:p) = 214.9 uA
If your circuit contains signals of the same quantity that are vastly different in size (such as high voltage circuitry combined with low voltage control circuitry), you should consider specifying global option `bin_relref=yes'.

~~~~~~~~~~~~~~~~~~~~~~~~~~~~~~~~~
Post-Transient Simulation Summary
~~~~~~~~~~~~~~~~~~~~~~~~~~~~~~~~~
   -   To further speed up simulation, consider
          add ++aps on command line
~~~~~~~~~~~~~~~~~~~~~~~~~~~~~~~~~


During simulation, the CPU load for active processors is :
         0 (2.6 %)       1 (43.8 %)      2 (10.0 %)      3 (58.1 %)
         4 (3.9 %)       5 (17.2 %)      6 (5.0 %)       7 (22.1 %)
         8 (82.0 %)      9 (30.5 %)     10 (2.4 %)      11 (20.6 %)
        Total: 298.1%
Initial condition solution time: CPU = 13.731 ms, elapsed = 15.451 ms.
Intrinsic tran analysis time:    CPU = 559.924 ms, elapsed = 624.711 ms.
Opening mt file:  /CASNFSHOME2/home/sstatthoudakis/Documents/spectre/Gates/NOR2/nor_validate/corners/corner_pin2/gate_load/nor_tt.mt12
Total time required for tran analysis `transient13': CPU = 582.173 ms, elapsed = 691.877 ms, util. = 84.1%.
Time accumulated: CPU = 8.99482 s, elapsed = 14.1338 s.
Peak resident memory used = 148 Mbytes.


**************************
Alter Group `altergroup13'
**************************
Time for altergroup13: CPU = 26.397 ms, elapsed = 26.8128 ms.
Time accumulated: CPU = 9.02155 s, elapsed = 14.1623 s.
Peak resident memory used = 148 Mbytes.


******************************************************
Transient Analysis `transient14': time = (0 s -> 2 ns)
******************************************************

Notice from spectre during IC analysis `timeSweep_cloned_13', during transient analysis `transient14'.
    GminDC = 1 pS is large enough to noticeably affect the DC solution.
        dV(nor6.net16) = 1.50873 mV
        Use the `gmin_check' option to eliminate or expand this report.

DC simulation time: CPU = 12.679 ms, elapsed = 14.1909 ms.

Notice from spectre during transient analysis `transient14'.
    No outputs were found. Loosening output filter criterion to `allpub'.


Opening the PSFXL file ./nor_tt.raw/transient14.tran.tran ...
Important parameter values:
    start = 0 s
    outputstart = 0 s
    stop = 2 ns
    step = 100 fs
    maxstep = 40 ps
    ic = all
    useprevic = no
    skipdc = no
    reltol = 1e-03
    abstol(V) = 1 uV
    abstol(I) = 1 pA
    temp = 50 C
    tnom = 27 C
    tempeffects = all
    errpreset = moderate
    method = traponly
    lteratio = 3.5
    relref = sigglobal
    cmin = 0 F
    gmin = 1 pS


Output and IC/nodeset summary:
                 probe  2       
                 save   3       (current)
                 save   563     (voltage)

.

Notice from spectre at time = 71.4806 ps during transient analysis `transient14'.
    Found trapezoidal ringing on node VGND:p.

......9......8......7......6......5......4......3......2......1......0
Number of accepted tran steps =             220

Notice from spectre during transient analysis `transient14'.
    Trapezoidal ringing is detected during tran analysis.
        Please use method=trap for better results and performance.


Maximum value achieved for any signal of each quantity: 
V: V(nor10_fanout4.nor13.net16) = 1.028 V
I: I(VVDD:p) = 210.4 uA
If your circuit contains signals of the same quantity that are vastly different in size (such as high voltage circuitry combined with low voltage control circuitry), you should consider specifying global option `bin_relref=yes'.

~~~~~~~~~~~~~~~~~~~~~~~~~~~~~~~~~
Post-Transient Simulation Summary
~~~~~~~~~~~~~~~~~~~~~~~~~~~~~~~~~
   -   To further speed up simulation, consider
          add ++aps on command line
~~~~~~~~~~~~~~~~~~~~~~~~~~~~~~~~~


During simulation, the CPU load for active processors is :
         0 (2.6 %)       1 (41.4 %)      2 (9.4 %)       3 (60.4 %)
         4 (3.7 %)       5 (16.5 %)      6 (5.0 %)       7 (25.4 %)
         8 (78.3 %)      9 (28.8 %)     10 (2.3 %)      11 (25.1 %)
        Total: 298.9%
Initial condition solution time: CPU = 12.752 ms, elapsed = 14.5221 ms.
Intrinsic tran analysis time:    CPU = 574.448 ms, elapsed = 634.61 ms.
Opening mt file:  /CASNFSHOME2/home/sstatthoudakis/Documents/spectre/Gates/NOR2/nor_validate/corners/corner_pin2/gate_load/nor_tt.mt13
Total time required for tran analysis `transient14': CPU = 601.5 ms, elapsed = 708.753 ms, util. = 84.9%.
Time accumulated: CPU = 9.6523 s, elapsed = 14.9722 s.
Peak resident memory used = 148 Mbytes.


**************************
Alter Group `altergroup14'
**************************
Time for altergroup14: CPU = 29.088 ms, elapsed = 29.6719 ms.
Time accumulated: CPU = 9.68176 s, elapsed = 15.0048 s.
Peak resident memory used = 148 Mbytes.


******************************************************
Transient Analysis `transient15': time = (0 s -> 2 ns)
******************************************************
DC simulation time: CPU = 13.91 ms, elapsed = 13.9132 ms.

Notice from spectre during transient analysis `transient15'.
    No outputs were found. Loosening output filter criterion to `allpub'.


Opening the PSFXL file ./nor_tt.raw/transient15.tran.tran ...
Important parameter values:
    start = 0 s
    outputstart = 0 s
    stop = 2 ns
    step = 100 fs
    maxstep = 40 ps
    ic = all
    useprevic = no
    skipdc = no
    reltol = 1e-03
    abstol(V) = 1 uV
    abstol(I) = 1 pA
    temp = 125 C
    tnom = 27 C
    tempeffects = all
    errpreset = moderate
    method = traponly
    lteratio = 3.5
    relref = sigglobal
    cmin = 0 F
    gmin = 1 pS


Output and IC/nodeset summary:
                 probe  2       
                 save   3       (current)
                 save   563     (voltage)

......9......8......7......6......5......4......3......2......1......0
Number of accepted tran steps =             210

Maximum value achieved for any signal of each quantity: 
V: V(nor10_fanout4.nor13.2:Q) = 1.023 V
I: I(VVDD:p) = 190.3 uA
If your circuit contains signals of the same quantity that are vastly different in size (such as high voltage circuitry combined with low voltage control circuitry), you should consider specifying global option `bin_relref=yes'.

~~~~~~~~~~~~~~~~~~~~~~~~~~~~~~~~~
Post-Transient Simulation Summary
~~~~~~~~~~~~~~~~~~~~~~~~~~~~~~~~~
   -   To further speed up simulation, consider
          add ++aps on command line
~~~~~~~~~~~~~~~~~~~~~~~~~~~~~~~~~


During simulation, the CPU load for active processors is :
         0 (2.6 %)       1 (39.3 %)      2 (9.2 %)       3 (62.4 %)
         4 (3.5 %)       5 (16.0 %)      6 (5.1 %)       7 (28.1 %)
         8 (74.5 %)      9 (27.4 %)     10 (2.2 %)      11 (28.9 %)
        Total: 299.3%
Initial condition solution time: CPU = 13.996 ms, elapsed = 14.513 ms.
Intrinsic tran analysis time:    CPU = 537.932 ms, elapsed = 592.117 ms.
Opening mt file:  /CASNFSHOME2/home/sstatthoudakis/Documents/spectre/Gates/NOR2/nor_validate/corners/corner_pin2/gate_load/nor_tt.mt14
Total time required for tran analysis `transient15': CPU = 558.725 ms, elapsed = 658.665 ms, util. = 84.8%.
Time accumulated: CPU = 10.2533 s, elapsed = 15.7477 s.
Peak resident memory used = 148 Mbytes.


**************************
Alter Group `altergroup15'
**************************
Time for altergroup15: CPU = 17.654 ms, elapsed = 18.1429 ms.
Time accumulated: CPU = 10.2711 s, elapsed = 15.7679 s.
Peak resident memory used = 148 Mbytes.


******************************************************
Transient Analysis `transient16': time = (0 s -> 2 ns)
******************************************************

Notice from spectre during IC analysis `timeSweep_cloned_15', during transient analysis `transient16'.
    GminDC = 1 pS is large enough to noticeably affect the DC solution.
        dV(nor9_fanout4.nor13.net16) = 10.4842 mV
        Use the `gmin_check' option to eliminate or expand this report.

DC simulation time: CPU = 18.777 ms, elapsed = 20.582 ms.

Notice from spectre during transient analysis `transient16'.
    No outputs were found. Loosening output filter criterion to `allpub'.


Opening the PSFXL file ./nor_tt.raw/transient16.tran.tran ...
Important parameter values:
    start = 0 s
    outputstart = 0 s
    stop = 2 ns
    step = 100 fs
    maxstep = 40 ps
    ic = all
    useprevic = no
    skipdc = no
    reltol = 1e-03
    abstol(V) = 1 uV
    abstol(I) = 1 pA
    temp = 0 C
    tnom = 27 C
    tempeffects = all
    errpreset = moderate
    method = traponly
    lteratio = 3.5
    relref = sigglobal
    cmin = 0 F
    gmin = 1 pS


Output and IC/nodeset summary:
                 probe  2       
                 save   3       (current)
                 save   563     (voltage)

..

Notice from spectre at time = 72.7865 ps during transient analysis `transient16'.
    Found trapezoidal ringing on node VGND:p.

......9......8......7......6......5......4......3......2......1......0
Number of accepted tran steps =             224

Notice from spectre during transient analysis `transient16'.
    Trapezoidal ringing is detected during tran analysis.
        Please use method=trap for better results and performance.


Maximum value achieved for any signal of each quantity: 
V: V(nor10_fanout4.nor12.net16) = 1.045 V
I: I(VVDD:p) = 210.9 uA
If your circuit contains signals of the same quantity that are vastly different in size (such as high voltage circuitry combined with low voltage control circuitry), you should consider specifying global option `bin_relref=yes'.

~~~~~~~~~~~~~~~~~~~~~~~~~~~~~~~~~
Post-Transient Simulation Summary
~~~~~~~~~~~~~~~~~~~~~~~~~~~~~~~~~
   -   To further speed up simulation, consider
          add ++aps on command line
~~~~~~~~~~~~~~~~~~~~~~~~~~~~~~~~~


During simulation, the CPU load for active processors is :
         0 (2.6 %)       1 (37.3 %)      2 (8.7 %)       3 (64.4 %)
         4 (3.3 %)       5 (15.2 %)      6 (5.1 %)       7 (30.6 %)
         8 (70.7 %)      9 (25.9 %)     10 (2.1 %)      11 (32.8 %)
        Total: 298.7%
Initial condition solution time: CPU = 18.839 ms, elapsed = 21.009 ms.
Intrinsic tran analysis time:    CPU = 597.815 ms, elapsed = 707.096 ms.
Opening mt file:  /CASNFSHOME2/home/sstatthoudakis/Documents/spectre/Gates/NOR2/nor_validate/corners/corner_pin2/gate_load/nor_tt.mt15
Total time required for tran analysis `transient16': CPU = 625.95 ms, elapsed = 783.613 ms, util. = 79.9%.
Time accumulated: CPU = 10.927 s, elapsed = 16.6588 s.
Peak resident memory used = 148 Mbytes.


**************************
Alter Group `altergroup16'
**************************
Time for altergroup16: CPU = 17.645 ms, elapsed = 17.921 ms.
Time accumulated: CPU = 10.9447 s, elapsed = 16.678 s.
Peak resident memory used = 148 Mbytes.


******************************************************
Transient Analysis `transient17': time = (0 s -> 2 ns)
******************************************************

Notice from spectre during IC analysis `timeSweep_cloned_16', during transient analysis `transient17'.
    GminDC = 1 pS is large enough to noticeably affect the DC solution.
        dV(nor6.net16) = 1.50901 mV
        Use the `gmin_check' option to eliminate or expand this report.

DC simulation time: CPU = 12.842 ms, elapsed = 14.266 ms.

Notice from spectre during transient analysis `transient17'.
    No outputs were found. Loosening output filter criterion to `allpub'.


Opening the PSFXL file ./nor_tt.raw/transient17.tran.tran ...
Important parameter values:
    start = 0 s
    outputstart = 0 s
    stop = 2 ns
    step = 100 fs
    maxstep = 40 ps
    ic = all
    useprevic = no
    skipdc = no
    reltol = 1e-03
    abstol(V) = 1 uV
    abstol(I) = 1 pA
    temp = 50 C
    tnom = 27 C
    tempeffects = all
    errpreset = moderate
    method = traponly
    lteratio = 3.5
    relref = sigglobal
    cmin = 0 F
    gmin = 1 pS


Output and IC/nodeset summary:
                 probe  2       
                 save   3       (current)
                 save   563     (voltage)

..

Notice from spectre at time = 71.8879 ps during transient analysis `transient17'.
    Found trapezoidal ringing on node VGND:p.

......9......8......7......6......5......4......3......2......1......0
Number of accepted tran steps =             228

Notice from spectre during transient analysis `transient17'.
    Trapezoidal ringing is detected during tran analysis.
        Please use method=trap for better results and performance.


Maximum value achieved for any signal of each quantity: 
V: V(nor10_fanout4.nor13.net16) = 1.039 V
I: I(VVDD:p) = 206 uA
If your circuit contains signals of the same quantity that are vastly different in size (such as high voltage circuitry combined with low voltage control circuitry), you should consider specifying global option `bin_relref=yes'.

~~~~~~~~~~~~~~~~~~~~~~~~~~~~~~~~~
Post-Transient Simulation Summary
~~~~~~~~~~~~~~~~~~~~~~~~~~~~~~~~~
   -   To further speed up simulation, consider
          add ++aps on command line
~~~~~~~~~~~~~~~~~~~~~~~~~~~~~~~~~


During simulation, the CPU load for active processors is :
         0 (2.5 %)       1 (35.8 %)      2 (8.3 %)       3 (66.2 %)
         4 (3.5 %)       5 (14.5 %)      6 (4.9 %)       7 (33.0 %)
         8 (67.9 %)      9 (24.7 %)     10 (2.0 %)      11 (36.1 %)
        Total: 299.4%
Initial condition solution time: CPU = 12.898 ms, elapsed = 14.601 ms.
Intrinsic tran analysis time:    CPU = 592.696 ms, elapsed = 656.915 ms.
Opening mt file:  /CASNFSHOME2/home/sstatthoudakis/Documents/spectre/Gates/NOR2/nor_validate/corners/corner_pin2/gate_load/nor_tt.mt16
Total time required for tran analysis `transient17': CPU = 614.783 ms, elapsed = 725.287 ms, util. = 84.8%.
Time accumulated: CPU = 11.5839 s, elapsed = 17.5014 s.
Peak resident memory used = 148 Mbytes.


**************************
Alter Group `altergroup17'
**************************
Time for altergroup17: CPU = 17.892 ms, elapsed = 18.178 ms.
Time accumulated: CPU = 11.6019 s, elapsed = 17.521 s.
Peak resident memory used = 148 Mbytes.


******************************************************
Transient Analysis `transient18': time = (0 s -> 2 ns)
******************************************************
DC simulation time: CPU = 13.531 ms, elapsed = 13.5341 ms.

Notice from spectre during transient analysis `transient18'.
    No outputs were found. Loosening output filter criterion to `allpub'.


Opening the PSFXL file ./nor_tt.raw/transient18.tran.tran ...
Important parameter values:
    start = 0 s
    outputstart = 0 s
    stop = 2 ns
    step = 100 fs
    maxstep = 40 ps
    ic = all
    useprevic = no
    skipdc = no
    reltol = 1e-03
    abstol(V) = 1 uV
    abstol(I) = 1 pA
    temp = 125 C
    tnom = 27 C
    tempeffects = all
    errpreset = moderate
    method = traponly
    lteratio = 3.5
    relref = sigglobal
    cmin = 0 F
    gmin = 1 pS


Output and IC/nodeset summary:
                 probe  2       
                 save   3       (current)
                 save   563     (voltage)

......9......8......7......6......5......4......3......2......1......0
Number of accepted tran steps =             213

Maximum value achieved for any signal of each quantity: 
V: V(nor10_fanout4.nor12.2:Q) = 1.033 V
I: I(VVDD:p) = 169.1 uA
If your circuit contains signals of the same quantity that are vastly different in size (such as high voltage circuitry combined with low voltage control circuitry), you should consider specifying global option `bin_relref=yes'.

~~~~~~~~~~~~~~~~~~~~~~~~~~~~~~~~~
Post-Transient Simulation Summary
~~~~~~~~~~~~~~~~~~~~~~~~~~~~~~~~~
   -   To further speed up simulation, consider
          add ++aps on command line
~~~~~~~~~~~~~~~~~~~~~~~~~~~~~~~~~


During simulation, the CPU load for active processors is :
         0 (2.4 %)       1 (34.3 %)      2 (8.0 %)       3 (67.6 %)
         4 (3.4 %)       5 (14.6 %)      6 (4.8 %)       7 (34.9 %)
         8 (65.1 %)      9 (23.7 %)     10 (1.9 %)      11 (38.2 %)
        Total: 298.8%
Initial condition solution time: CPU = 13.602 ms, elapsed = 14.199 ms.
Intrinsic tran analysis time:    CPU = 537.602 ms, elapsed = 595.232 ms.
Opening mt file:  /CASNFSHOME2/home/sstatthoudakis/Documents/spectre/Gates/NOR2/nor_validate/corners/corner_pin2/gate_load/nor_tt.mt17
Total time required for tran analysis `transient18': CPU = 557.885 ms, elapsed = 658.812 ms, util. = 84.7%.
Time accumulated: CPU = 12.173 s, elapsed = 18.2546 s.
Peak resident memory used = 148 Mbytes.


**************************
Alter Group `altergroup18'
**************************
Time for altergroup18: CPU = 20.306 ms, elapsed = 20.9019 ms.
Time accumulated: CPU = 12.1935 s, elapsed = 18.2775 s.
Peak resident memory used = 148 Mbytes.


******************************************************
Transient Analysis `transient19': time = (0 s -> 2 ns)
******************************************************

Notice from spectre during IC analysis `timeSweep_cloned_18', during transient analysis `transient19'.
    GminDC = 1 pS is large enough to noticeably affect the DC solution.
        dV(nor9_fanout4.nor12.net16) = 10.4793 mV
        Use the `gmin_check' option to eliminate or expand this report.

DC simulation time: CPU = 19.117 ms, elapsed = 20.6342 ms.

Notice from spectre during transient analysis `transient19'.
    No outputs were found. Loosening output filter criterion to `allpub'.


Opening the PSFXL file ./nor_tt.raw/transient19.tran.tran ...
Important parameter values:
    start = 0 s
    outputstart = 0 s
    stop = 2 ns
    step = 100 fs
    maxstep = 40 ps
    ic = all
    useprevic = no
    skipdc = no
    reltol = 1e-03
    abstol(V) = 1 uV
    abstol(I) = 1 pA
    temp = 0 C
    tnom = 27 C
    tempeffects = all
    errpreset = moderate
    method = traponly
    lteratio = 3.5
    relref = sigglobal
    cmin = 0 F
    gmin = 1 pS


Output and IC/nodeset summary:
                 probe  2       
                 save   3       (current)
                 save   563     (voltage)

..

Notice from spectre at time = 73.2764 ps during transient analysis `transient19'.
    Found trapezoidal ringing on node VGND:p.

......9......8......7......6......5......4......3......2......1......0
Number of accepted tran steps =             230

Notice from spectre during transient analysis `transient19'.
    Trapezoidal ringing is detected during tran analysis.
        Please use method=trap for better results and performance.


Maximum value achieved for any signal of each quantity: 
V: V(nor10_fanout4.nor13.net16) = 1.054 V
I: I(VVDD:p) = 190.5 uA
If your circuit contains signals of the same quantity that are vastly different in size (such as high voltage circuitry combined with low voltage control circuitry), you should consider specifying global option `bin_relref=yes'.

~~~~~~~~~~~~~~~~~~~~~~~~~~~~~~~~~
Post-Transient Simulation Summary
~~~~~~~~~~~~~~~~~~~~~~~~~~~~~~~~~
   -   To further speed up simulation, consider
          add ++aps on command line
~~~~~~~~~~~~~~~~~~~~~~~~~~~~~~~~~


During simulation, the CPU load for active processors is :
         0 (2.5 %)       1 (32.8 %)      2 (7.7 %)       3 (69.1 %)
         4 (3.4 %)       5 (14.3 %)      6 (4.6 %)       7 (36.9 %)
         8 (62.4 %)      9 (22.7 %)     10 (6.0 %)      11 (36.5 %)
        Total: 299.0%
Initial condition solution time: CPU = 19.181 ms, elapsed = 21.0161 ms.
Intrinsic tran analysis time:    CPU = 601.615 ms, elapsed = 669.191 ms.
Opening mt file:  /CASNFSHOME2/home/sstatthoudakis/Documents/spectre/Gates/NOR2/nor_validate/corners/corner_pin2/gate_load/nor_tt.mt18
Total time required for tran analysis `transient19': CPU = 627.344 ms, elapsed = 738.632 ms, util. = 84.9%.
Time accumulated: CPU = 12.8343 s, elapsed = 19.099 s.
Peak resident memory used = 148 Mbytes.


**************************
Alter Group `altergroup19'
**************************
Time for altergroup19: CPU = 17.889 ms, elapsed = 18.4271 ms.
Time accumulated: CPU = 12.8523 s, elapsed = 19.1189 s.
Peak resident memory used = 148 Mbytes.


******************************************************
Transient Analysis `transient20': time = (0 s -> 2 ns)
******************************************************

Notice from spectre during IC analysis `timeSweep_cloned_19', during transient analysis `transient20'.
    GminDC = 1 pS is large enough to noticeably affect the DC solution.
        dV(nor6.net16) = 1.50895 mV
        Use the `gmin_check' option to eliminate or expand this report.

DC simulation time: CPU = 12.769 ms, elapsed = 14.241 ms.

Notice from spectre during transient analysis `transient20'.
    No outputs were found. Loosening output filter criterion to `allpub'.


Opening the PSFXL file ./nor_tt.raw/transient20.tran.tran ...
Important parameter values:
    start = 0 s
    outputstart = 0 s
    stop = 2 ns
    step = 100 fs
    maxstep = 40 ps
    ic = all
    useprevic = no
    skipdc = no
    reltol = 1e-03
    abstol(V) = 1 uV
    abstol(I) = 1 pA
    temp = 50 C
    tnom = 27 C
    tempeffects = all
    errpreset = moderate
    method = traponly
    lteratio = 3.5
    relref = sigglobal
    cmin = 0 F
    gmin = 1 pS


Output and IC/nodeset summary:
                 probe  2       
                 save   3       (current)
                 save   563     (voltage)

......9......8......7......6......5......4......3......2......1......0
Number of accepted tran steps =             229

Maximum value achieved for any signal of each quantity: 
V: V(nor10_fanout4.nor13.net16) = 1.049 V
I: I(VVDD:p) = 187.9 uA
If your circuit contains signals of the same quantity that are vastly different in size (such as high voltage circuitry combined with low voltage control circuitry), you should consider specifying global option `bin_relref=yes'.

~~~~~~~~~~~~~~~~~~~~~~~~~~~~~~~~~
Post-Transient Simulation Summary
~~~~~~~~~~~~~~~~~~~~~~~~~~~~~~~~~
   -   To further speed up simulation, consider
          add ++aps on command line
~~~~~~~~~~~~~~~~~~~~~~~~~~~~~~~~~


During simulation, the CPU load for active processors is :
         0 (2.5 %)       1 (31.5 %)      2 (7.4 %)       3 (70.4 %)
         4 (3.3 %)       5 (13.8 %)      6 (4.5 %)       7 (38.7 %)
         8 (60.0 %)      9 (21.8 %)     10 (7.0 %)      11 (37.9 %)
        Total: 298.8%
Initial condition solution time: CPU = 12.833 ms, elapsed = 14.6849 ms.
Intrinsic tran analysis time:    CPU = 599.928 ms, elapsed = 669.128 ms.
Opening mt file:  /CASNFSHOME2/home/sstatthoudakis/Documents/spectre/Gates/NOR2/nor_validate/corners/corner_pin2/gate_load/nor_tt.mt19
Total time required for tran analysis `transient20': CPU = 622.277 ms, elapsed = 735.824 ms, util. = 84.6%.
Time accumulated: CPU = 13.5073 s, elapsed = 19.9882 s.
Peak resident memory used = 148 Mbytes.


**************************
Alter Group `altergroup20'
**************************
Time for altergroup20: CPU = 22.259 ms, elapsed = 22.8989 ms.
Time accumulated: CPU = 13.5299 s, elapsed = 20.0134 s.
Peak resident memory used = 148 Mbytes.


******************************************************
Transient Analysis `transient21': time = (0 s -> 2 ns)
******************************************************
DC simulation time: CPU = 13.603 ms, elapsed = 13.6061 ms.

Notice from spectre during transient analysis `transient21'.
    No outputs were found. Loosening output filter criterion to `allpub'.


Opening the PSFXL file ./nor_tt.raw/transient21.tran.tran ...
Important parameter values:
    start = 0 s
    outputstart = 0 s
    stop = 2 ns
    step = 100 fs
    maxstep = 40 ps
    ic = all
    useprevic = no
    skipdc = no
    reltol = 1e-03
    abstol(V) = 1 uV
    abstol(I) = 1 pA
    temp = 125 C
    tnom = 27 C
    tempeffects = all
    errpreset = moderate
    method = traponly
    lteratio = 3.5
    relref = sigglobal
    cmin = 0 F
    gmin = 1 pS


Output and IC/nodeset summary:
                 probe  2       
                 save   3       (current)
                 save   563     (voltage)

......9......8......7......6......5......4......3......2......1......0
Number of accepted tran steps =             217

Maximum value achieved for any signal of each quantity: 
V: V(nor10_fanout4.nor11.2:Q) = 1.043 V
I: I(VVDD:p) = 152.8 uA
If your circuit contains signals of the same quantity that are vastly different in size (such as high voltage circuitry combined with low voltage control circuitry), you should consider specifying global option `bin_relref=yes'.

~~~~~~~~~~~~~~~~~~~~~~~~~~~~~~~~~
Post-Transient Simulation Summary
~~~~~~~~~~~~~~~~~~~~~~~~~~~~~~~~~
   -   To further speed up simulation, consider
          add ++aps on command line
~~~~~~~~~~~~~~~~~~~~~~~~~~~~~~~~~


During simulation, the CPU load for active processors is :
         0 (2.5 %)       1 (30.2 %)      2 (7.3 %)       3 (71.6 %)
         4 (3.1 %)       5 (13.6 %)      6 (4.3 %)       7 (40.2 %)
         8 (57.6 %)      9 (20.9 %)     10 (6.7 %)      11 (40.5 %)
        Total: 298.6%
Initial condition solution time: CPU = 13.678 ms, elapsed = 14.2519 ms.
Intrinsic tran analysis time:    CPU = 557.777 ms, elapsed = 645.362 ms.
Opening mt file:  /CASNFSHOME2/home/sstatthoudakis/Documents/spectre/Gates/NOR2/nor_validate/corners/corner_pin2/gate_load/nor_tt.mt20
Total time required for tran analysis `transient21': CPU = 579.539 ms, elapsed = 713.103 ms, util. = 81.3%.
Time accumulated: CPU = 14.1232 s, elapsed = 20.817 s.
Peak resident memory used = 148 Mbytes.


**************************
Alter Group `altergroup21'
**************************
Time for altergroup21: CPU = 20.011 ms, elapsed = 20.6199 ms.
Time accumulated: CPU = 14.1434 s, elapsed = 20.839 s.
Peak resident memory used = 148 Mbytes.


******************************************************
Transient Analysis `transient22': time = (0 s -> 2 ns)
******************************************************

Notice from spectre during IC analysis `timeSweep_cloned_21', during transient analysis `transient22'.
    GminDC = 1 pS is large enough to noticeably affect the DC solution.
        dV(nor9_fanout4.nor11.net16) = 10.4737 mV
        Use the `gmin_check' option to eliminate or expand this report.

DC simulation time: CPU = 22.81 ms, elapsed = 24.7011 ms.

Notice from spectre during transient analysis `transient22'.
    No outputs were found. Loosening output filter criterion to `allpub'.


Opening the PSFXL file ./nor_tt.raw/transient22.tran.tran ...
Important parameter values:
    start = 0 s
    outputstart = 0 s
    stop = 2 ns
    step = 100 fs
    maxstep = 40 ps
    ic = all
    useprevic = no
    skipdc = no
    reltol = 1e-03
    abstol(V) = 1 uV
    abstol(I) = 1 pA
    temp = 0 C
    tnom = 27 C
    tempeffects = all
    errpreset = moderate
    method = traponly
    lteratio = 3.5
    relref = sigglobal
    cmin = 0 F
    gmin = 1 pS


Output and IC/nodeset summary:
                 probe  2       
                 save   3       (current)
                 save   563     (voltage)

..

Notice from spectre at time = 73.7739 ps during transient analysis `transient22'.
    Found trapezoidal ringing on node VGND:p.

......9......8......7......6......5......4......3......2......1......0
Number of accepted tran steps =             236

Notice from spectre during transient analysis `transient22'.
    Trapezoidal ringing is detected during tran analysis.
        Please use method=trap for better results and performance.


Maximum value achieved for any signal of each quantity: 
V: V(nor10_fanout4.nor11.net16) = 1.064 V
I: I(VVDD:p) = 158.5 uA
If your circuit contains signals of the same quantity that are vastly different in size (such as high voltage circuitry combined with low voltage control circuitry), you should consider specifying global option `bin_relref=yes'.

~~~~~~~~~~~~~~~~~~~~~~~~~~~~~~~~~
Post-Transient Simulation Summary
~~~~~~~~~~~~~~~~~~~~~~~~~~~~~~~~~
   -   To further speed up simulation, consider
          add ++aps on command line
~~~~~~~~~~~~~~~~~~~~~~~~~~~~~~~~~


During simulation, the CPU load for active processors is :
         0 (2.5 %)       1 (29.1 %)      2 (7.0 %)       3 (72.8 %)
         4 (3.0 %)       5 (16.5 %)      6 (4.2 %)       7 (38.8 %)
[...]
Total time required for tran analysis `transient141': CPU = 797.944 ms, elapsed = 920.185 ms, util. = 86.7%.
Time accumulated: CPU = 111.616 s (1m  51.6s), elapsed = 143.066 s (2m  23.1s).
Peak resident memory used = 159 Mbytes.


***************************
Alter Group `altergroup141'
***************************
Time for altergroup141: CPU = 23.784 ms, elapsed = 24.543 ms.
Time accumulated: CPU = 111.64 s (1m  51.6s), elapsed = 143.092 s (2m  23.1s).
Peak resident memory used = 159 Mbytes.


*******************************************************
Transient Analysis `transient142': time = (0 s -> 2 ns)
*******************************************************

Notice from spectre during IC analysis `timeSweep_cloned_141', during transient analysis `transient142'.
    GminDC = 1 pS is large enough to noticeably affect the DC solution.
        dV(nor10.net16) = 9.83276 mV
        Use the `gmin_check' option to eliminate or expand this report.

DC simulation time: CPU = 17.737 ms, elapsed = 19.6202 ms.

Notice from spectre during transient analysis `transient142'.
    No outputs were found. Loosening output filter criterion to `allpub'.


Opening the PSFXL file ./nor_tt.raw/transient142.tran.tran ...
Important parameter values:
    start = 0 s
    outputstart = 0 s
    stop = 2 ns
    step = 100 fs
    maxstep = 40 ps
    ic = all
    useprevic = no
    skipdc = no
    reltol = 1e-03
    abstol(V) = 1 uV
    abstol(I) = 1 pA
    temp = 0 C
    tnom = 27 C
    tempeffects = all
    errpreset = moderate
    method = traponly
    lteratio = 3.5
    relref = sigglobal
    cmin = 0 F
    gmin = 1 pS


Output and IC/nodeset summary:
                 probe  2       
                 save   3       (current)
                 save   563     (voltage)

......9......8......

Notice from spectre at time = 582.019 ps during transient analysis `transient142'.
    Found trapezoidal ringing on node nor6.3:A.
Notice from spectre at time = 582.619 ps during transient analysis `transient142'.
    Found trapezoidal ringing on node nor6.3:A.
Notice from spectre at time = 583.819 ps during transient analysis `transient142'.
    Found trapezoidal ringing on node nor6.3:A.
Notice from spectre at time = 586.218 ps during transient analysis `transient142'.
    Found trapezoidal ringing on node nor6.3:A.

......9......8......7.....

Notice from spectre at time = 757.265 ps during transient analysis `transient142'.
    Found trapezoidal ringing on node nor8.3:A.
        Further occurrences of this notice will be suppressed.

......9......8......7......6......5......4......3......2......1......0
Number of accepted tran steps =             315

Notice from spectre during transient analysis `transient142'.
    Trapezoidal ringing is detected during tran analysis.
        Please use method=trap for better results and performance.


Maximum value achieved for any signal of each quantity: 
V: V(nor10_fanout4.nor13.2:Q) = 1.463 V
I: I(VGND:p) = 326.8 uA
If your circuit contains signals of the same quantity that are vastly different in size (such as high voltage circuitry combined with low voltage control circuitry), you should consider specifying global option `bin_relref=yes'.

~~~~~~~~~~~~~~~~~~~~~~~~~~~~~~~~~
Post-Transient Simulation Summary
~~~~~~~~~~~~~~~~~~~~~~~~~~~~~~~~~
   -   To further speed up simulation, consider
          add ++aps on command line
~~~~~~~~~~~~~~~~~~~~~~~~~~~~~~~~~


During simulation, the CPU load for active processors is :
         0 (8.8 %)       1 (46.7 %)      2 (7.9 %)       3 (60.6 %)
         4 (8.3 %)       5 (12.7 %)      6 (23.3 %)      7 (24.9 %)
         8 (18.6 %)      9 (12.8 %)     10 (6.0 %)      11 (91.5 %)
        Total: 322.1%
Initial condition solution time: CPU = 17.81 ms, elapsed = 19.9649 ms.
Intrinsic tran analysis time:    CPU = 880.648 ms, elapsed = 971.635 ms.
Opening mt file:  /CASNFSHOME2/home/sstatthoudakis/Documents/spectre/Gates/NOR2/nor_validate/corners/corner_pin2/gate_load/nor_tt.mt141
Total time required for tran analysis `transient142': CPU = 906.949 ms, elapsed = 1.04444 s, util. = 86.8%.
Time accumulated: CPU = 112.572 s (1m  52.6s), elapsed = 144.246 s (2m  24.2s).
Peak resident memory used = 159 Mbytes.


Notice from spectre.
    3 notices suppressed.


***************************
Alter Group `altergroup142'
***************************
Time for altergroup142: CPU = 34.081 ms, elapsed = 35.033 ms.
Time accumulated: CPU = 112.607 s (1m  52.6s), elapsed = 144.282 s (2m  24.3s).
Peak resident memory used = 159 Mbytes.


*******************************************************
Transient Analysis `transient143': time = (0 s -> 2 ns)
*******************************************************

Notice from spectre during IC analysis `timeSweep_cloned_142', during transient analysis `transient143'.
    GminDC = 1 pS is large enough to noticeably affect the DC solution.
        dV(nor2.net16) = 1.4331 mV
        Use the `gmin_check' option to eliminate or expand this report.

DC simulation time: CPU = 15.587 ms, elapsed = 17.0798 ms.

Notice from spectre during transient analysis `transient143'.
    No outputs were found. Loosening output filter criterion to `allpub'.


Opening the PSFXL file ./nor_tt.raw/transient143.tran.tran ...
Important parameter values:
    start = 0 s
    outputstart = 0 s
    stop = 2 ns
    step = 100 fs
    maxstep = 40 ps
    ic = all
    useprevic = no
    skipdc = no
    reltol = 1e-03
    abstol(V) = 1 uV
    abstol(I) = 1 pA
    temp = 50 C
    tnom = 27 C
    tempeffects = all
    errpreset = moderate
    method = traponly
    lteratio = 3.5
    relref = sigglobal
    cmin = 0 F
    gmin = 1 pS


Output and IC/nodeset summary:
                 probe  2       
                 save   3       (current)
                 save   563     (voltage)

......9......8......7......6......5......4......3......2......1......0
Number of accepted tran steps =             300

Maximum value achieved for any signal of each quantity: 
V: V(nor10_fanout4.nor13.2:Q) = 1.461 V
I: I(VGND:p) = 310.4 uA
If your circuit contains signals of the same quantity that are vastly different in size (such as high voltage circuitry combined with low voltage control circuitry), you should consider specifying global option `bin_relref=yes'.

~~~~~~~~~~~~~~~~~~~~~~~~~~~~~~~~~
Post-Transient Simulation Summary
~~~~~~~~~~~~~~~~~~~~~~~~~~~~~~~~~
   -   To further speed up simulation, consider
          add ++aps on command line
~~~~~~~~~~~~~~~~~~~~~~~~~~~~~~~~~


During simulation, the CPU load for active processors is :
         0 (9.2 %)       1 (46.4 %)      2 (7.9 %)       3 (60.9 %)
         4 (8.2 %)       5 (12.6 %)      6 (23.1 %)      7 (25.0 %)
         8 (18.5 %)      9 (12.7 %)     10 (5.9 %)      11 (91.5 %)
        Total: 322.0%
Initial condition solution time: CPU = 15.676 ms, elapsed = 17.5228 ms.
Intrinsic tran analysis time:    CPU = 884.975 ms, elapsed = 948.072 ms.
Opening mt file:  /CASNFSHOME2/home/sstatthoudakis/Documents/spectre/Gates/NOR2/nor_validate/corners/corner_pin2/gate_load/nor_tt.mt142
Total time required for tran analysis `transient143': CPU = 912.047 ms, elapsed = 1.01881 s, util. = 89.5%.
Time accumulated: CPU = 113.554 s (1m  53.6s), elapsed = 145.424 s (2m  25.4s).
Peak resident memory used = 159 Mbytes.


***************************
Alter Group `altergroup143'
***************************
Time for altergroup143: CPU = 27.58 ms, elapsed = 28.7471 ms.
Time accumulated: CPU = 113.582 s (1m  53.6s), elapsed = 145.455 s (2m  25.5s).
Peak resident memory used = 159 Mbytes.


*******************************************************
Transient Analysis `transient144': time = (0 s -> 2 ns)
*******************************************************
DC simulation time: CPU = 14.634 ms, elapsed = 14.657 ms.

Notice from spectre during transient analysis `transient144'.
    No outputs were found. Loosening output filter criterion to `allpub'.


Opening the PSFXL file ./nor_tt.raw/transient144.tran.tran ...
Important parameter values:
    start = 0 s
    outputstart = 0 s
    stop = 2 ns
    step = 100 fs
    maxstep = 40 ps
    ic = all
    useprevic = no
    skipdc = no
    reltol = 1e-03
    abstol(V) = 1 uV
    abstol(I) = 1 pA
    temp = 125 C
    tnom = 27 C
    tempeffects = all
    errpreset = moderate
    method = traponly
    lteratio = 3.5
    relref = sigglobal
    cmin = 0 F
    gmin = 1 pS


Output and IC/nodeset summary:
                 probe  2       
                 save   3       (current)
                 save   563     (voltage)

......9......8......7......6......5......4......3......2......1......0
Number of accepted tran steps =             271

Maximum value achieved for any signal of each quantity: 
V: V(nor10_fanout4.nor13.2:Q) = 1.457 V
I: I(VGND:p) = 288.1 uA
If your circuit contains signals of the same quantity that are vastly different in size (such as high voltage circuitry combined with low voltage control circuitry), you should consider specifying global option `bin_relref=yes'.

~~~~~~~~~~~~~~~~~~~~~~~~~~~~~~~~~
Post-Transient Simulation Summary
~~~~~~~~~~~~~~~~~~~~~~~~~~~~~~~~~
   -   To further speed up simulation, consider
          add ++aps on command line
~~~~~~~~~~~~~~~~~~~~~~~~~~~~~~~~~


During simulation, the CPU load for active processors is :
         0 (9.2 %)       1 (46.1 %)      2 (7.9 %)       3 (61.2 %)
         4 (8.3 %)       5 (13.0 %)      6 (22.9 %)      7 (24.8 %)
         8 (18.4 %)      9 (12.6 %)     10 (5.9 %)      11 (91.6 %)
        Total: 321.9%
Initial condition solution time: CPU = 14.79 ms, elapsed = 15.348 ms.
Intrinsic tran analysis time:    CPU = 783.303 ms, elapsed = 872.356 ms.
Opening mt file:  /CASNFSHOME2/home/sstatthoudakis/Documents/spectre/Gates/NOR2/nor_validate/corners/corner_pin2/gate_load/nor_tt.mt143
Total time required for tran analysis `transient144': CPU = 805.941 ms, elapsed = 907.887 ms, util. = 88.8%.
Time accumulated: CPU = 114.418 s (1m  54.4s), elapsed = 146.47 s (2m  26.5s).
Peak resident memory used = 159 Mbytes.


***************************
Alter Group `altergroup144'
***************************
Time for altergroup144: CPU = 20.805 ms, elapsed = 21.2979 ms.
Time accumulated: CPU = 114.439 s (1m  54.4s), elapsed = 146.493 s (2m  26.5s).
Peak resident memory used = 159 Mbytes.


*******************************************************
Transient Analysis `transient145': time = (0 s -> 2 ns)
*******************************************************

Notice from spectre during IC analysis `timeSweep_cloned_144', during transient analysis `transient145'.
    GminDC = 1 pS is large enough to noticeably affect the DC solution.
        dV(nor10.net16) = 9.8086 mV
        Use the `gmin_check' option to eliminate or expand this report.

DC simulation time: CPU = 18.363 ms, elapsed = 20.1688 ms.

Notice from spectre during transient analysis `transient145'.
    No outputs were found. Loosening output filter criterion to `allpub'.


Opening the PSFXL file ./nor_tt.raw/transient145.tran.tran ...
Important parameter values:
    start = 0 s
    outputstart = 0 s
    stop = 2 ns
    step = 100 fs
    maxstep = 40 ps
    ic = all
    useprevic = no
    skipdc = no
    reltol = 1e-03
    abstol(V) = 1 uV
    abstol(I) = 1 pA
    temp = 0 C
    tnom = 27 C
    tempeffects = all
    errpreset = moderate
    method = traponly
    lteratio = 3.5
    relref = sigglobal
    cmin = 0 F
    gmin = 1 pS


Output and IC/nodeset summary:
                 probe  2       
                 save   3       (current)
                 save   563     (voltage)

......9......8......

Notice from spectre at time = 578.462 ps during transient analysis `transient145'.
    Found trapezoidal ringing on node nor6.3:A.
Notice from spectre at time = 581.378 ps during transient analysis `transient145'.
    Found trapezoidal ringing on node nor6.3:A.

......9......8......7......6......5......4......3......2......1......0
Number of accepted tran steps =             314

Notice from spectre during transient analysis `transient145'.
    Trapezoidal ringing is detected during tran analysis.
        Please use method=trap for better results and performance.


Maximum value achieved for any signal of each quantity: 
V: V(nor10_fanout4.nor12.2:Q) = 1.474 V
I: I(VGND:p) = 332.6 uA
If your circuit contains signals of the same quantity that are vastly different in size (such as high voltage circuitry combined with low voltage control circuitry), you should consider specifying global option `bin_relref=yes'.

~~~~~~~~~~~~~~~~~~~~~~~~~~~~~~~~~
Post-Transient Simulation Summary
~~~~~~~~~~~~~~~~~~~~~~~~~~~~~~~~~
   -   To further speed up simulation, consider
          add ++aps on command line
~~~~~~~~~~~~~~~~~~~~~~~~~~~~~~~~~


During simulation, the CPU load for active processors is :
         0 (9.4 %)       1 (45.8 %)      2 (7.9 %)       3 (61.5 %)
         4 (8.3 %)       5 (12.9 %)      6 (22.8 %)      7 (24.6 %)
         8 (18.3 %)      9 (13.1 %)     10 (5.8 %)      11 (91.7 %)
        Total: 322.1%
Initial condition solution time: CPU = 18.434 ms, elapsed = 20.611 ms.
Intrinsic tran analysis time:    CPU = 888.296 ms, elapsed = 966.627 ms.
Opening mt file:  /CASNFSHOME2/home/sstatthoudakis/Documents/spectre/Gates/NOR2/nor_validate/corners/corner_pin2/gate_load/nor_tt.mt144
Total time required for tran analysis `transient145': CPU = 915.029 ms, elapsed = 1.0429 s, util. = 87.7%.
Time accumulated: CPU = 115.373 s (1m  55.4s), elapsed = 147.642 s (2m  27.6s).
Peak resident memory used = 159 Mbytes.


***************************
Alter Group `altergroup145'
***************************
Time for altergroup145: CPU = 21.166 ms, elapsed = 21.4341 ms.
Time accumulated: CPU = 115.394 s (1m  55.4s), elapsed = 147.664 s (2m  27.7s).
Peak resident memory used = 159 Mbytes.


*******************************************************
Transient Analysis `transient146': time = (0 s -> 2 ns)
*******************************************************

Notice from spectre during IC analysis `timeSweep_cloned_145', during transient analysis `transient146'.
    GminDC = 1 pS is large enough to noticeably affect the DC solution.
        dV(nor2.net16) = 1.4304 mV
        Use the `gmin_check' option to eliminate or expand this report.

DC simulation time: CPU = 13.821 ms, elapsed = 15.08 ms.

Notice from spectre during transient analysis `transient146'.
    No outputs were found. Loosening output filter criterion to `allpub'.


Opening the PSFXL file ./nor_tt.raw/transient146.tran.tran ...
Important parameter values:
    start = 0 s
    outputstart = 0 s
    stop = 2 ns
    step = 100 fs
    maxstep = 40 ps
    ic = all
    useprevic = no
    skipdc = no
    reltol = 1e-03
    abstol(V) = 1 uV
    abstol(I) = 1 pA
    temp = 50 C
    tnom = 27 C
    tempeffects = all
    errpreset = moderate
    method = traponly
    lteratio = 3.5
    relref = sigglobal
    cmin = 0 F
    gmin = 1 pS


Output and IC/nodeset summary:
                 probe  2       
                 save   3       (current)
                 save   563     (voltage)

......9......8......7......6......5......4......3......2......1......0
Number of accepted tran steps =             299

Maximum value achieved for any signal of each quantity: 
V: V(nor10_fanout4.nor13.2:Q) = 1.471 V
I: I(VGND:p) = 315.6 uA
If your circuit contains signals of the same quantity that are vastly different in size (such as high voltage circuitry combined with low voltage control circuitry), you should consider specifying global option `bin_relref=yes'.

~~~~~~~~~~~~~~~~~~~~~~~~~~~~~~~~~
Post-Transient Simulation Summary
~~~~~~~~~~~~~~~~~~~~~~~~~~~~~~~~~
   -   To further speed up simulation, consider
          add ++aps on command line
~~~~~~~~~~~~~~~~~~~~~~~~~~~~~~~~~


During simulation, the CPU load for active processors is :
         0 (9.5 %)       1 (45.6 %)      2 (7.9 %)       3 (61.7 %)
         4 (8.2 %)       5 (12.9 %)      6 (22.6 %)      7 (24.6 %)
         8 (18.2 %)      9 (13.6 %)     10 (5.9 %)      11 (91.7 %)
        Total: 322.6%
Initial condition solution time: CPU = 13.875 ms, elapsed = 15.5509 ms.
Intrinsic tran analysis time:    CPU = 817.872 ms, elapsed = 895.785 ms.
Opening mt file:  /CASNFSHOME2/home/sstatthoudakis/Documents/spectre/Gates/NOR2/nor_validate/corners/corner_pin2/gate_load/nor_tt.mt145
Total time required for tran analysis `transient146': CPU = 840.256 ms, elapsed = 964.274 ms, util. = 87.1%.
Time accumulated: CPU = 116.267 s (1m  56.3s), elapsed = 148.776 s (2m  28.8s).
Peak resident memory used = 159 Mbytes.


***************************
Alter Group `altergroup146'
***************************
Time for altergroup146: CPU = 28.421 ms, elapsed = 29.0129 ms.
Time accumulated: CPU = 116.296 s (1m  56.3s), elapsed = 148.807 s (2m  28.8s).
Peak resident memory used = 159 Mbytes.


*******************************************************
Transient Analysis `transient147': time = (0 s -> 2 ns)
*******************************************************
DC simulation time: CPU = 13.335 ms, elapsed = 13.3369 ms.

Notice from spectre during transient analysis `transient147'.
    No outputs were found. Loosening output filter criterion to `allpub'.


Opening the PSFXL file ./nor_tt.raw/transient147.tran.tran ...
Important parameter values:
    start = 0 s
    outputstart = 0 s
    stop = 2 ns
    step = 100 fs
    maxstep = 40 ps
    ic = all
    useprevic = no
    skipdc = no
    reltol = 1e-03
    abstol(V) = 1 uV
    abstol(I) = 1 pA
    temp = 125 C
    tnom = 27 C
    tempeffects = all
    errpreset = moderate
    method = traponly
    lteratio = 3.5
    relref = sigglobal
    cmin = 0 F
    gmin = 1 pS


Output and IC/nodeset summary:
                 probe  2       
                 save   3       (current)
                 save   563     (voltage)

......9......8......7......6......5......4......3......2......1......0
Number of accepted tran steps =             272

Maximum value achieved for any signal of each quantity: 
V: V(nor10_fanout4.nor13.2:Q) = 1.467 V
I: I(VGND:p) = 291.9 uA
If your circuit contains signals of the same quantity that are vastly different in size (such as high voltage circuitry combined with low voltage control circuitry), you should consider specifying global option `bin_relref=yes'.

~~~~~~~~~~~~~~~~~~~~~~~~~~~~~~~~~
Post-Transient Simulation Summary
~~~~~~~~~~~~~~~~~~~~~~~~~~~~~~~~~
   -   To further speed up simulation, consider
          add ++aps on command line
~~~~~~~~~~~~~~~~~~~~~~~~~~~~~~~~~


During simulation, the CPU load for active processors is :
         0 (9.6 %)       1 (45.3 %)      2 (7.8 %)       3 (62.0 %)
         4 (8.2 %)       5 (12.9 %)      6 (22.5 %)      7 (24.4 %)
         8 (18.1 %)      9 (14.1 %)     10 (5.9 %)      11 (91.8 %)
        Total: 322.5%
Initial condition solution time: CPU = 13.416 ms, elapsed = 14.0021 ms.
Intrinsic tran analysis time:    CPU = 713.91 ms, elapsed = 789.499 ms.
Opening mt file:  /CASNFSHOME2/home/sstatthoudakis/Documents/spectre/Gates/NOR2/nor_validate/corners/corner_pin2/gate_load/nor_tt.mt146
Total time required for tran analysis `transient147': CPU = 736.823 ms, elapsed = 858.796 ms, util. = 85.8%.
Time accumulated: CPU = 117.066 s (1m  57.1s), elapsed = 149.781 s (2m  29.8s).
Peak resident memory used = 159 Mbytes.

Licensing Information:
Lic Summary:
[14:46:21.388880] Cdslmd servers:5280@10.64.82.10
[14:46:21.389027] Feature usage summary:
[14:46:21.389034] Virtuoso_Multi_mode_Simulation


Aggregate audit (2:46:21 PM, Wed Oct 29, 2025):
Time used: CPU = 117 s (1m  57.1s), elapsed = 150 s (2m  30.0s), util. = 78.1%.
Time spent in licensing: elapsed = 554 ms.
Peak memory used = 159 Mbytes.
Simulation started at: 2:43:51 PM, Wed Oct 29, 2025, ended at: 2:46:21 PM, Wed Oct 29, 2025, with elapsed time (wall clock): 150 s (2m  30.0s).
spectre completes with 0 errors, 12 warnings, and 468 notices.
