
Spectre (R) Circuit Simulator
Version 23.1.0.242.isr1 64bit -- 7 Sep 2023
Copyright (C) 1989-2023 Cadence Design Systems, Inc. All rights reserved worldwide. Cadence and Spectre are registered trademarks of Cadence Design Systems, Inc. All others are the property of their respective holders.

Includes RSA BSAFE(R) Cryptographic or Security Protocol Software from RSA Security, Inc.

User: sstatthoudakis   Host: torreyridge   HostID: 7F0100   PID: 30313
Memory  available: 104.5315 GB  physical: 135.0278 GB
Linux   : CentOS Linux release 7 (Core)
CPU Type: Intel(R) Xeon(R) Silver 4114 CPU @ 2.20GHz
All processors running at 2194.8 MHz
        Socket: Processors
        0:       0
        2:       1
        4:       2
        6:       3
        8:       4
        10:      5
        12:      6
        14:      7
        16:      8
        18:      9
        20:     10
        22:     11
        
System load averages (1min, 5min, 15min) : 28.5 %, 26.9 %, 24.3 %
This is a virtual machine


Simulating `nor_ss.scs' on torreyridge at 2:41:37 PM, Wed Oct 29, 2025 (process id: 30313).
Current working directory: /CASNFSHOME2/home/sstatthoudakis/Documents/spectre/Gates/NOR2/nor_validate/corners/corner_pin2/gate_load
Command line:
     \
        /CASNFSHOME/home/edatools/cadence/2023-24/RHELx86/SPECTRE_23.10.242/tools.lnx86/bin/spectre  \
        -64 nor_ss.scs

Licensing Information:
[14:41:37.231841] Configured Lic search path (22.01-s002): 5280@10.64.82.10

Licensing Information:
[14:41:37.077979] Periodic Lic check successful

Loading /CASNFSHOME/home/edatools/cadence/2023-24/RHELx86/SPECTRE_23.10.242/tools.lnx86/cmi/lib/64bit/5.0/libinfineon_sh.so ...
Loading /CASNFSHOME/home/edatools/cadence/2023-24/RHELx86/SPECTRE_23.10.242/tools.lnx86/cmi/lib/64bit/5.0/libphilips_I_sh.so ...
Loading /CASNFSHOME/home/edatools/cadence/2023-24/RHELx86/SPECTRE_23.10.242/tools.lnx86/cmi/lib/64bit/5.0/libphilips_sh.so ...
Loading /CASNFSHOME/home/edatools/cadence/2023-24/RHELx86/SPECTRE_23.10.242/tools.lnx86/cmi/lib/64bit/5.0/libsparam_sh.so ...
Loading /CASNFSHOME/home/edatools/cadence/2023-24/RHELx86/SPECTRE_23.10.242/tools.lnx86/cmi/lib/64bit/5.0/libstmodels_sh.so ...
Reading file:  /CASNFSHOME2/home/sstatthoudakis/Documents/spectre/Gates/NOR2/nor_validate/corners/corner_pin2/gate_load/nor_ss.scs
Reading file:  /CASNFSHOME/home/edatools/cadence/2023-24/RHELx86/SPECTRE_23.10.242/tools.lnx86/spectre/etc/configs/spectre.cfg
Reading file:  /CASNFSHOME/home/tsaikaterini/IHP/IHP_Generation_files/130ng/ihp013ng_include_all_slow.scs
Reading file:  /CASNFSHOME/home/tsaikaterini/IHP/IHP_Generation_files/130ng/SG13S_618_rev1.12.15/tech/SG13_HBT/VBIC/spectre/SG13_cornerBIP.scs
Reading file:  /CASNFSHOME/home/tsaikaterini/IHP/IHP_Generation_files/130ng/SG13S_618_rev1.12.15/tech/SG13_HBT/VBIC/spectre/SG13_hbt_mm.scs
Reading file:  /CASNFSHOME/home/tsaikaterini/IHP/IHP_Generation_files/130ng/SG13S_618_rev1.12.15/tech/SG13_HBT/VBIC/spectre/SG13_hbt.lib
Reading file:  /CASNFSHOME/home/tsaikaterini/IHP/IHP_Generation_files/130ng/SG13S_618_rev1.12.15/tech/SG13_HBT/VBIC/spectre/SG13_hbt_stat.scs
Reading file:  /CASNFSHOME/home/tsaikaterini/IHP/IHP_Generation_files/130ng/SG13S_618_rev1.12.15/tech/SG13_MOS/library/spectre/cornerMOSlv_psp.scs
Reading file:  /CASNFSHOME/home/tsaikaterini/IHP/IHP_Generation_files/130ng/SG13S_618_rev1.12.15/tech/SG13_MOS/library/spectre/sg13_moslv_psp_stat.scs
Reading file:  /CASNFSHOME/home/tsaikaterini/IHP/IHP_Generation_files/130ng/SG13S_618_rev1.12.15/tech/SG13_MOS/library/spectre/sg13_moslv_psp_mod.lib
Reading file:  /CASNFSHOME/home/tsaikaterini/IHP/IHP_Generation_files/130ng/SG13S_618_rev1.12.15/tech/SG13_MOS/library/spectre/sg13_moslv_psp_parm.scs
Reading file:  /CASNFSHOME/home/tsaikaterini/IHP/IHP_Generation_files/130ng/SG13S_618_rev1.12.15/tech/SG13_MOS/library/spectre/cornerMOShv_psp.scs
Reading file:  /CASNFSHOME/home/tsaikaterini/IHP/IHP_Generation_files/130ng/SG13S_618_rev1.12.15/tech/SG13_MOS/library/spectre/sg13_moshv_psp_stat.scs
Reading file:  /CASNFSHOME/home/tsaikaterini/IHP/IHP_Generation_files/130ng/SG13S_618_rev1.12.15/tech/SG13_MOS/library/spectre/sg13_moshv_psp_mod.lib
Reading file:  /CASNFSHOME/home/tsaikaterini/IHP/IHP_Generation_files/130ng/SG13S_618_rev1.12.15/tech/SG13_MOS/library/spectre/sg13_moshv_psp_parm.scs

Warning from spectre in `nmoselt', during circuit read-in.
    WARNING (SFE-2296): "/CASNFSHOME/home/tsaikaterini/IHP/IHP_Generation_files/130ng/SG13S_618_rev1.12.15/tech/SG13_MOS/library/spectre/sg13_moshv_psp_mod.lib" 79: The inline subckt definition `nmoselt' does not contain any inline components. The `inline' qualifier will therefore be ignored.

Reading file:  /CASNFSHOME/home/tsaikaterini/IHP/IHP_Generation_files/130ng/SG13S_618_rev1.12.15/tech/SG13_MOS/library/spectre/sg13_svaricaphv_mosvar_mod.lib
Reading file:  /CASNFSHOME/home/tsaikaterini/IHP/IHP_Generation_files/130ng/SG13S_618_rev1.12.15/tech/SG13_PASSIVES/spectre/SG13_cornerRES.scs
Reading file:  /CASNFSHOME/home/tsaikaterini/IHP/IHP_Generation_files/130ng/SG13S_618_rev1.12.15/tech/SG13_PASSIVES/spectre/SG13_res_mm.scs
Reading file:  /CASNFSHOME/home/tsaikaterini/IHP/IHP_Generation_files/130ng/SG13S_618_rev1.12.15/tech/SG13_PASSIVES/spectre/SG13_res_stat.scs
Reading file:  /CASNFSHOME/home/tsaikaterini/IHP/IHP_Generation_files/130ng/SG13S_618_rev1.12.15/tech/SG13_PASSIVES/spectre/SG13_res.lib
Reading file:  /CASNFSHOME/home/tsaikaterini/IHP/IHP_Generation_files/130ng/SG13S_618_rev1.12.15/tech/SG13_PASSIVES/spectre/SG13_cornerCAP.scs
Reading file:  /CASNFSHOME/home/tsaikaterini/IHP/IHP_Generation_files/130ng/SG13S_618_rev1.12.15/tech/SG13_PASSIVES/spectre/SG13_cap_mm.scs
Reading file:  /CASNFSHOME/home/tsaikaterini/IHP/IHP_Generation_files/130ng/SG13S_618_rev1.12.15/tech/SG13_PASSIVES/spectre/SG13_cap_stat.scs
Reading file:  /CASNFSHOME/home/tsaikaterini/IHP/IHP_Generation_files/130ng/SG13S_618_rev1.12.15/tech/SG13_PASSIVES/spectre/SG13_cap.lib
Reading file:  /CASNFSHOME/home/tsaikaterini/IHP/IHP_Generation_files/130ng/SG13S_618_rev1.12.15/tech/SG13_PASSIVES/spectre/Ind_unit_4PI
Reading file:  /CASNFSHOME/home/tsaikaterini/IHP/IHP_Generation_files/130ng/SG13S_618_rev1.12.15/tech/SG13_PASSIVES/spectre/Parameters_define_4PI
Reading file:  /CASNFSHOME/home/tsaikaterini/IHP/IHP_Generation_files/130ng/SG13S_618_rev1.12.15/tech/SG13_PASSIVES/spectre/sg13s_dschottky_nbl1_mod.lib
Reading file:  /CASNFSHOME/home/tsaikaterini/IHP/IHP_Generation_files/130ng/SG13S_618_rev1.12.15/tech/SG13_PASSIVES/spectre/SG13_diodes.lib
Reading file:  /CASNFSHOME/home/tsaikaterini/IHP/IHP_Generation_files/130ng/SG13S_618_rev1.12.15/tech/SG13_MOS/library/spectre/CheckMOSstat.scs
Reading file:  /CASNFSHOME/home/tsaikaterini/IHP/IHP_Generation_files/130ng/SG13S_618_rev1.12.15/tech/SG13_MOS/library/spectre/CheckMOSdyn.scs
Reading file:  /CASNFSHOME/home/tsaikaterini/IHP/IHP_Generation_files/130ng/SG13S_618_rev1.12.15/tech/SG13_ESD/spectre/SG13_esd.lib
Reading file:  /CASNFSHOME/home/tsaikaterini/IHP/IHP_Generation_files/130ng/SG13S_618_rev1.12.15/tech/SG13_PASSIVES/spectre/SG13_cornerTSV.scs
Reading file:  /CASNFSHOME/home/tsaikaterini/IHP/IHP_Generation_files/130ng/SG13S_618_rev1.12.15/tech/SG13_PASSIVES/spectre/SG13_paramsTSV.scs
Reading file:  /CASNFSHOME/home/tsaikaterini/IHP/IHP_Generation_files/130ng/SG13S_618_rev1.12.15/tech/SG13_PASSIVES/spectre/SG13_tsv.lib
Reading file:  /CASNFSHOME/home/tsaikaterini/IHP/IHP_Generation_files/130ng/ixc013ng_stdcell_rc.scs
Time for NDB Parsing: CPU = 589.224 ms, elapsed = 1.40392 s.
Time accumulated: CPU = 726.76 ms, elapsed = 1.40392 s.
Peak resident memory used = 113 Mbytes.


Warning from spectre in `NO2JIX0':`nor1', during hierarchy flattening.
    WARNING (SFE-103): "/CASNFSHOME/home/tsaikaterini/IHP/IHP_Generation_files/130ng/ixc013ng_stdcell_rc.scs" 28325: Subcircuit parameter `nrd', defined for subcircuit `sg13_lv_pmos', has been ignored because it is invalid. Check the parameters that are defined for the instantiated subcircuit and rerun the simulation.
    WARNING (SFE-103): "/CASNFSHOME/home/tsaikaterini/IHP/IHP_Generation_files/130ng/ixc013ng_stdcell_rc.scs" 28325: Subcircuit parameter `nrs', defined for subcircuit `sg13_lv_pmos', has been ignored because it is invalid. Check the parameters that are defined for the instantiated subcircuit and rerun the simulation.
    WARNING (SFE-103): "/CASNFSHOME/home/tsaikaterini/IHP/IHP_Generation_files/130ng/ixc013ng_stdcell_rc.scs" 28328: Subcircuit parameter `nrd', defined for subcircuit `sg13_lv_pmos', has been ignored because it is invalid. Check the parameters that are defined for the instantiated subcircuit and rerun the simulation.
    WARNING (SFE-103): "/CASNFSHOME/home/tsaikaterini/IHP/IHP_Generation_files/130ng/ixc013ng_stdcell_rc.scs" 28328: Subcircuit parameter `nrs', defined for subcircuit `sg13_lv_pmos', has been ignored because it is invalid. Check the parameters that are defined for the instantiated subcircuit and rerun the simulation.
    WARNING (SFE-103): "/CASNFSHOME/home/tsaikaterini/IHP/IHP_Generation_files/130ng/ixc013ng_stdcell_rc.scs" 28330: Subcircuit parameter `nrd', defined for subcircuit `sg13_lv_nmos', has been ignored because it is invalid. Check the parameters that are defined for the instantiated subcircuit and rerun the simulation.
        Further occurrences of this warning will be suppressed.

Time for Elaboration: CPU = 54.112 ms, elapsed = 140.189 ms.
Time accumulated: CPU = 781.093 ms, elapsed = 1.54615 s.
Peak resident memory used = 122 Mbytes.


Notice from spectre in `NO2JIX0':`nor1', during hierarchy flattening.
    nor1.c5: Terminals are connected together (to node `VSS').
Notice from spectre in `NO2JIX0':`nor2', during hierarchy flattening.
    nor2.c5: Terminals are connected together (to node `VSS').
Notice from spectre in `NO2JIX0':`nor3', during hierarchy flattening.
    nor3.c5: Terminals are connected together (to node `VSS').
Notice from spectre in `NO2JIX0':`nor4', during hierarchy flattening.
    nor4.c5: Terminals are connected together (to node `VSS').
Notice from spectre in `NO2JIX0':`nor5', during hierarchy flattening.
    nor5.c5: Terminals are connected together (to node `VSS').
        Further occurrences of this notice will be suppressed.

Loading /CASNFSHOME/home/edatools/cadence/2023-24/RHELx86/SPECTRE_23.10.242/tools.lnx86/mdl/lib/64bit/libSpectreEH_sh.so ...

Time for EDB Visiting: CPU = 46.953 ms, elapsed = 52.2809 ms.
Time accumulated: CPU = 828.284 ms, elapsed = 1.6005 s.
Peak resident memory used = 131 Mbytes.


Warning from spectre during initial setup.
    WARNING (SPECTRE-17237): Assert violations will be written to the sqldb file because the 'checklimitdest' option has not been specified.
    WARNING (SPECTRE-17607): Assert `check_sg13s_lv_nmosHV_vgs' is ignored because it contains an expression which is not supported by native evaluator. 
    WARNING (SPECTRE-17607): Assert `check_sg13s_lv_nmosHV_vgd' is ignored because it contains an expression which is not supported by native evaluator. 
    WARNING (SPECTRE-17607): Assert `check_sg13s_lv_nmosHV_vds' is ignored because it contains an expression which is not supported by native evaluator. 
    WARNING (SPECTRE-17607): Assert `check_sg13s_lv_nmosHV_vdb' is ignored because it contains an expression which is not supported by native evaluator. 
    WARNING (SPECTRE-17607): Assert `check_sg13s_lv_nmosHV_vgb' is ignored because it contains an expression which is not supported by native evaluator. 
        Further occurrences of this warning will be suppressed.


Global user options:
               temp = 0

Scoped user options:

Circuit inventory:
              nodes 563
          capacitor 680   
          pspnqs103 160   
           resistor 480   
            vsource 3     

Analysis and control statement inventory:
         altergroup 146   
               tran 147   

Output statements:
             .probe 0     
           .measure 3     
               save 0     

Design checks inventory:
          paramtest 640   
             assert 40    


Notice from spectre.
    35 notices suppressed.
    322 warnings suppressed.

Time for parsing: CPU = 33.338 ms, elapsed = 1.2587 s.
Time accumulated: CPU = 861.85 ms, elapsed = 2.86142 s.
Peak resident memory used = 135 Mbytes.

~~~~~~~~~~~~~~~~~~~~~~
Pre-Simulation Summary
~~~~~~~~~~~~~~~~~~~~~~
~~~~~~~~~~~~~~~~~~~~~~

Notice from spectre during transient analysis `transient1'.
    No checklimit analysis defined for asserts. A default checklimit analysis 'SpectreChecklimitAnal' has been created with all asserts enabled.


*****************************************************
Transient Analysis `transient1': time = (0 s -> 2 ns)
*****************************************************

Notice from spectre during IC analysis `timeSweep', during transient analysis `transient1'.
    GminDC = 1 pS is large enough to noticeably affect the DC solution.
        dV(nor8.net16) = 22.1507 mV
        Use the `gmin_check' option to eliminate or expand this report.

DC simulation time: CPU = 26.157 ms, elapsed = 27.7131 ms.

Notice from spectre during transient analysis `transient1'.
    No outputs were found. Loosening output filter criterion to `allpub'.


Opening the PSFXL file ./nor_ss.raw/transient1.tran.tran ...
Important parameter values:
    start = 0 s
    outputstart = 0 s
    stop = 2 ns
    step = 100 fs
    maxstep = 40 ps
    ic = all
    useprevic = no
    skipdc = no
    reltol = 1e-03
    abstol(V) = 1 uV
    abstol(I) = 1 pA
    temp = 0 C
    tnom = 27 C
    tempeffects = all
    errpreset = moderate
    method = traponly
    lteratio = 3.5
    relref = sigglobal
    cmin = 0 F
    gmin = 1 pS


Output and IC/nodeset summary:
                 probe  2       
                 save   3       (current)
                 save   563     (voltage)

......9......8......7......6......5......4......3......2......1......0
Number of accepted tran steps =             159

Maximum value achieved for any signal of each quantity: 
V: V(nor1_fanout4.nor13.net16) = 1.007 V
I: I(VVDD:p) = 102.8 uA
If your circuit contains signals of the same quantity that are vastly different in size (such as high voltage circuitry combined with low voltage control circuitry), you should consider specifying global option `bin_relref=yes'.

~~~~~~~~~~~~~~~~~~~~~~~~~~~~~~~~~
Post-Transient Simulation Summary
~~~~~~~~~~~~~~~~~~~~~~~~~~~~~~~~~
   -   To further speed up simulation, consider
          add ++aps on command line
~~~~~~~~~~~~~~~~~~~~~~~~~~~~~~~~~


During simulation, the CPU load for active processors is :
         1 (6.4 %)       2 (100.0 %)     3 (21.4 %)      4 (2.6 %)
         5 (3.2 %)       6 (17.8 %)      7 (4.4 %)       8 (100.0 %)
         9 (10.8 %)     10 (2.0 %)      
        Total: 269.6%
Initial condition solution time: CPU = 26.269 ms, elapsed = 28.141 ms.
Intrinsic tran analysis time:    CPU = 493.527 ms, elapsed = 570.845 ms.
Opening measure  file:  /CASNFSHOME2/home/sstatthoudakis/Documents/spectre/Gates/NOR2/nor_validate/corners/corner_pin2/gate_load/nor_ss.measure
Opening mt file:  /CASNFSHOME2/home/sstatthoudakis/Documents/spectre/Gates/NOR2/nor_validate/corners/corner_pin2/gate_load/nor_ss.mt0
Total time required for tran analysis `transient1': CPU = 599.788 ms, elapsed = 865.462 ms, util. = 69.3%.
Time accumulated: CPU = 1.47935 s, elapsed = 3.81107 s.
Peak resident memory used = 147 Mbytes.


*************************
Alter Group `altergroup1'
*************************
Time for altergroup1: CPU = 28.088 ms, elapsed = 28.8289 ms.
Time accumulated: CPU = 1.50756 s, elapsed = 3.84167 s.
Peak resident memory used = 148 Mbytes.


*****************************************************
Transient Analysis `transient2': time = (0 s -> 2 ns)
*****************************************************

Notice from spectre during IC analysis `timeSweep_cloned_1', during transient analysis `transient2'.
    GminDC = 1 pS is large enough to noticeably affect the DC solution.
        dV(nor9_fanout4.nor11.net16) = 7.63697 mV
        Use the `gmin_check' option to eliminate or expand this report.

DC simulation time: CPU = 13.73 ms, elapsed = 15.193 ms.

Notice from spectre during transient analysis `transient2'.
    No outputs were found. Loosening output filter criterion to `allpub'.


Opening the PSFXL file ./nor_ss.raw/transient2.tran.tran ...
Important parameter values:
    start = 0 s
    outputstart = 0 s
    stop = 2 ns
    step = 100 fs
    maxstep = 40 ps
    ic = all
    useprevic = no
    skipdc = no
    reltol = 1e-03
    abstol(V) = 1 uV
    abstol(I) = 1 pA
    temp = 50 C
    tnom = 27 C
    tempeffects = all
    errpreset = moderate
    method = traponly
    lteratio = 3.5
    relref = sigglobal
    cmin = 0 F
    gmin = 1 pS


Output and IC/nodeset summary:
                 probe  2       
                 save   3       (current)
                 save   563     (voltage)

.

Notice from spectre at time = 65.002 ps during transient analysis `transient2'.
    Found trapezoidal ringing on node VGND:p.

......9......8......7......6......5......4......3......2......1......0
Number of accepted tran steps =             161

Notice from spectre during transient analysis `transient2'.
    Trapezoidal ringing is detected during tran analysis.
        Please use method=trap for better results and performance.


Maximum value achieved for any signal of each quantity: 
V: V(nor1.net16) = 997.9 mV
I: I(VVDD:p) = 116.9 uA
If your circuit contains signals of the same quantity that are vastly different in size (such as high voltage circuitry combined with low voltage control circuitry), you should consider specifying global option `bin_relref=yes'.

~~~~~~~~~~~~~~~~~~~~~~~~~~~~~~~~~
Post-Transient Simulation Summary
~~~~~~~~~~~~~~~~~~~~~~~~~~~~~~~~~
   -   To further speed up simulation, consider
          add ++aps on command line
~~~~~~~~~~~~~~~~~~~~~~~~~~~~~~~~~


During simulation, the CPU load for active processors is :
         1 (6.9 %)       2 (100.0 %)     3 (25.5 %)      4 (2.7 %)
         5 (3.5 %)       6 (15.4 %)      7 (6.4 %)       8 (100.0 %)
         9 (8.5 %)      10 (2.1 %)      11 (5.5 %)      
        Total: 276.9%
Initial condition solution time: CPU = 13.798 ms, elapsed = 15.626 ms.
Intrinsic tran analysis time:    CPU = 439.137 ms, elapsed = 519.615 ms.
Opening mt file:  /CASNFSHOME2/home/sstatthoudakis/Documents/spectre/Gates/NOR2/nor_validate/corners/corner_pin2/gate_load/nor_ss.mt1
Total time required for tran analysis `transient2': CPU = 462.945 ms, elapsed = 591.178 ms, util. = 78.3%.
Time accumulated: CPU = 2.00263 s, elapsed = 4.54936 s.
Peak resident memory used = 148 Mbytes.


*************************
Alter Group `altergroup2'
*************************
Time for altergroup2: CPU = 22.307 ms, elapsed = 22.7728 ms.
Time accumulated: CPU = 2.02531 s, elapsed = 4.5743 s.
Peak resident memory used = 148 Mbytes.


*****************************************************
Transient Analysis `transient3': time = (0 s -> 2 ns)
*****************************************************

Notice from spectre during IC analysis `timeSweep_cloned_2', during transient analysis `transient3'.
    GminDC = 1 pS is large enough to noticeably affect the DC solution.
        dV(nor6.net16) = 285.601 uV
        Use the `gmin_check' option to eliminate or expand this report.

DC simulation time: CPU = 14.304 ms, elapsed = 16.243 ms.

Notice from spectre during transient analysis `transient3'.
    No outputs were found. Loosening output filter criterion to `allpub'.


Opening the PSFXL file ./nor_ss.raw/transient3.tran.tran ...
Important parameter values:
    start = 0 s
    outputstart = 0 s
    stop = 2 ns
    step = 100 fs
    maxstep = 40 ps
    ic = all
    useprevic = no
    skipdc = no
    reltol = 1e-03
    abstol(V) = 1 uV
    abstol(I) = 1 pA
    temp = 125 C
    tnom = 27 C
    tempeffects = all
    errpreset = moderate
    method = traponly
    lteratio = 3.5
    relref = sigglobal
    cmin = 0 F
    gmin = 1 pS


Output and IC/nodeset summary:
                 probe  2       
                 save   3       (current)
                 save   563     (voltage)

.

Notice from spectre at time = 64.9094 ps during transient analysis `transient3'.
    Found trapezoidal ringing on node VGND:p.

......9......8......7......6......5......4......3......2......1......0
Number of accepted tran steps =             156

Notice from spectre during transient analysis `transient3'.
    Trapezoidal ringing is detected during tran analysis.
        Please use method=trap for better results and performance.


Maximum value achieved for any signal of each quantity: 
V: V(nor1.net16) = 992.8 mV
I: I(VVDD:p) = 132.4 uA
If your circuit contains signals of the same quantity that are vastly different in size (such as high voltage circuitry combined with low voltage control circuitry), you should consider specifying global option `bin_relref=yes'.

~~~~~~~~~~~~~~~~~~~~~~~~~~~~~~~~~
Post-Transient Simulation Summary
~~~~~~~~~~~~~~~~~~~~~~~~~~~~~~~~~
   -   To further speed up simulation, consider
          add ++aps on command line
~~~~~~~~~~~~~~~~~~~~~~~~~~~~~~~~~


During simulation, the CPU load for active processors is :
         1 (5.8 %)       2 (100.0 %)     3 (22.0 %)      4 (2.3 %)
         5 (3.3 %)       6 (13.7 %)      7 (7.2 %)       8 (100.0 %)
         9 (7.4 %)      10 (1.9 %)      11 (14.6 %)     
        Total: 278.7%
Initial condition solution time: CPU = 14.373 ms, elapsed = 16.824 ms.
Intrinsic tran analysis time:    CPU = 439.127 ms, elapsed = 557.563 ms.
Opening mt file:  /CASNFSHOME2/home/sstatthoudakis/Documents/spectre/Gates/NOR2/nor_validate/corners/corner_pin2/gate_load/nor_ss.mt2
Total time required for tran analysis `transient3': CPU = 461.084 ms, elapsed = 599.636 ms, util. = 76.9%.
Time accumulated: CPU = 2.50675 s, elapsed = 5.26818 s.
Peak resident memory used = 148 Mbytes.


*************************
Alter Group `altergroup3'
*************************
Time for altergroup3: CPU = 23.063 ms, elapsed = 23.5589 ms.
Time accumulated: CPU = 2.52996 s, elapsed = 5.29321 s.
Peak resident memory used = 148 Mbytes.


*****************************************************
Transient Analysis `transient4': time = (0 s -> 2 ns)
*****************************************************

Notice from spectre during IC analysis `timeSweep_cloned_3', during transient analysis `transient4'.
    GminDC = 1 pS is large enough to noticeably affect the DC solution.
        dV(nor10.net16) = 22.011 mV
        Use the `gmin_check' option to eliminate or expand this report.

DC simulation time: CPU = 15.168 ms, elapsed = 17.4892 ms.

Notice from spectre during transient analysis `transient4'.
    No outputs were found. Loosening output filter criterion to `allpub'.


Opening the PSFXL file ./nor_ss.raw/transient4.tran.tran ...
Important parameter values:
    start = 0 s
    outputstart = 0 s
    stop = 2 ns
    step = 100 fs
    maxstep = 40 ps
    ic = all
    useprevic = no
    skipdc = no
    reltol = 1e-03
    abstol(V) = 1 uV
    abstol(I) = 1 pA
    temp = 0 C
    tnom = 27 C
    tempeffects = all
    errpreset = moderate
    method = traponly
    lteratio = 3.5
    relref = sigglobal
    cmin = 0 F
    gmin = 1 pS


Output and IC/nodeset summary:
                 probe  2       
                 save   3       (current)
                 save   563     (voltage)

......9......8......7......6......5......4......3......2......1......0
Number of accepted tran steps =             164

Maximum value achieved for any signal of each quantity: 
V: V(nor1_fanout4.nor13.net16) = 1.015 V
I: I(VVDD:p) = 121.9 uA
If your circuit contains signals of the same quantity that are vastly different in size (such as high voltage circuitry combined with low voltage control circuitry), you should consider specifying global option `bin_relref=yes'.

~~~~~~~~~~~~~~~~~~~~~~~~~~~~~~~~~
Post-Transient Simulation Summary
~~~~~~~~~~~~~~~~~~~~~~~~~~~~~~~~~
   -   To further speed up simulation, consider
          add ++aps on command line
~~~~~~~~~~~~~~~~~~~~~~~~~~~~~~~~~


During simulation, the CPU load for active processors is :
         0 (1.0 %)       1 (5.3 %)       2 (100.0 %)     3 (19.7 %)
         4 (2.6 %)       5 (3.1 %)       6 (12.1 %)      7 (6.5 %)
         8 (100.0 %)     9 (6.7 %)      10 (2.0 %)      11 (22.3 %)
        Total: 281.2%
Initial condition solution time: CPU = 15.24 ms, elapsed = 17.9832 ms.
Intrinsic tran analysis time:    CPU = 480.604 ms, elapsed = 581.114 ms.
Opening mt file:  /CASNFSHOME2/home/sstatthoudakis/Documents/spectre/Gates/NOR2/nor_validate/corners/corner_pin2/gate_load/nor_ss.mt3
Total time required for tran analysis `transient4': CPU = 508.49 ms, elapsed = 662.648 ms, util. = 76.7%.
Time accumulated: CPU = 3.05656 s, elapsed = 6.05564 s.
Peak resident memory used = 148 Mbytes.


*************************
Alter Group `altergroup4'
*************************
Time for altergroup4: CPU = 30.718 ms, elapsed = 31.383 ms.
Time accumulated: CPU = 3.08743 s, elapsed = 6.08888 s.
Peak resident memory used = 148 Mbytes.


*****************************************************
Transient Analysis `transient5': time = (0 s -> 2 ns)
*****************************************************

Notice from spectre during IC analysis `timeSweep_cloned_4', during transient analysis `transient5'.
    GminDC = 1 pS is large enough to noticeably affect the DC solution.
        dV(nor9_fanout4.nor13.net16) = 7.64379 mV
        Use the `gmin_check' option to eliminate or expand this report.

DC simulation time: CPU = 17.078 ms, elapsed = 19.0358 ms.

Notice from spectre during transient analysis `transient5'.
    No outputs were found. Loosening output filter criterion to `allpub'.


Opening the PSFXL file ./nor_ss.raw/transient5.tran.tran ...
Important parameter values:
    start = 0 s
    outputstart = 0 s
    stop = 2 ns
    step = 100 fs
    maxstep = 40 ps
    ic = all
    useprevic = no
    skipdc = no
    reltol = 1e-03
    abstol(V) = 1 uV
    abstol(I) = 1 pA
    temp = 50 C
    tnom = 27 C
    tempeffects = all
    errpreset = moderate
    method = traponly
    lteratio = 3.5
    relref = sigglobal
    cmin = 0 F
    gmin = 1 pS


Output and IC/nodeset summary:
                 probe  2       
                 save   3       (current)
                 save   563     (voltage)

.

Notice from spectre at time = 65.4446 ps during transient analysis `transient5'.
    Found trapezoidal ringing on node VGND:p.

......9......8......7......6......5......4......3......2......1......0
Number of accepted tran steps =             158

Notice from spectre during transient analysis `transient5'.
    Trapezoidal ringing is detected during tran analysis.
        Please use method=trap for better results and performance.


Maximum value achieved for any signal of each quantity: 
V: V(nor1.net16) = 1.008 V
I: I(VVDD:p) = 130.1 uA
If your circuit contains signals of the same quantity that are vastly different in size (such as high voltage circuitry combined with low voltage control circuitry), you should consider specifying global option `bin_relref=yes'.

~~~~~~~~~~~~~~~~~~~~~~~~~~~~~~~~~
Post-Transient Simulation Summary
~~~~~~~~~~~~~~~~~~~~~~~~~~~~~~~~~
   -   To further speed up simulation, consider
          add ++aps on command line
~~~~~~~~~~~~~~~~~~~~~~~~~~~~~~~~~


During simulation, the CPU load for active processors is :
         0 (8.8 %)       1 (4.8 %)       2 (100.0 %)     3 (17.6 %)
         4 (2.3 %)       5 (3.0 %)       6 (10.8 %)      7 (6.1 %)
         8 (100.0 %)     9 (5.9 %)      10 (2.0 %)      11 (20.4 %)
        Total: 281.6%
Initial condition solution time: CPU = 17.152 ms, elapsed = 19.5022 ms.
Intrinsic tran analysis time:    CPU = 451.864 ms, elapsed = 533.194 ms.
Opening mt file:  /CASNFSHOME2/home/sstatthoudakis/Documents/spectre/Gates/NOR2/nor_validate/corners/corner_pin2/gate_load/nor_ss.mt4
Total time required for tran analysis `transient5': CPU = 479.95 ms, elapsed = 606.022 ms, util. = 79.2%.
Time accumulated: CPU = 3.58272 s, elapsed = 6.78678 s.
Peak resident memory used = 148 Mbytes.


*************************
Alter Group `altergroup5'
*************************
Time for altergroup5: CPU = 18.569 ms, elapsed = 19.0711 ms.
Time accumulated: CPU = 3.6014 s, elapsed = 6.80747 s.
Peak resident memory used = 148 Mbytes.


*****************************************************
Transient Analysis `transient6': time = (0 s -> 2 ns)
*****************************************************

Notice from spectre during IC analysis `timeSweep_cloned_5', during transient analysis `transient6'.
    GminDC = 1 pS is large enough to noticeably affect the DC solution.
        dV(nor6.net16) = 286.407 uV
        Use the `gmin_check' option to eliminate or expand this report.

DC simulation time: CPU = 13.676 ms, elapsed = 15.9421 ms.

Notice from spectre during transient analysis `transient6'.
    No outputs were found. Loosening output filter criterion to `allpub'.


Opening the PSFXL file ./nor_ss.raw/transient6.tran.tran ...
Important parameter values:
    start = 0 s
    outputstart = 0 s
    stop = 2 ns
    step = 100 fs
    maxstep = 40 ps
    ic = all
    useprevic = no
    skipdc = no
    reltol = 1e-03
    abstol(V) = 1 uV
    abstol(I) = 1 pA
    temp = 125 C
    tnom = 27 C
    tempeffects = all
    errpreset = moderate
    method = traponly
    lteratio = 3.5
    relref = sigglobal
    cmin = 0 F
    gmin = 1 pS


Output and IC/nodeset summary:
                 probe  2       
                 save   3       (current)
                 save   563     (voltage)

.

Notice from spectre at time = 65.2754 ps during transient analysis `transient6'.
    Found trapezoidal ringing on node VGND:p.

......9......8......7......6......5......4......3......2......1......0
Number of accepted tran steps =             162

Notice from spectre during transient analysis `transient6'.
    Trapezoidal ringing is detected during tran analysis.
        Please use method=trap for better results and performance.


Maximum value achieved for any signal of each quantity: 
V: V(nor1.net16) = 1.002 V
I: I(VVDD:p) = 131.9 uA
If your circuit contains signals of the same quantity that are vastly different in size (such as high voltage circuitry combined with low voltage control circuitry), you should consider specifying global option `bin_relref=yes'.

~~~~~~~~~~~~~~~~~~~~~~~~~~~~~~~~~
Post-Transient Simulation Summary
~~~~~~~~~~~~~~~~~~~~~~~~~~~~~~~~~
   -   To further speed up simulation, consider
          add ++aps on command line
~~~~~~~~~~~~~~~~~~~~~~~~~~~~~~~~~


During simulation, the CPU load for active processors is :
         0 (14.9 %)      1 (4.8 %)       2 (100.0 %)     3 (16.1 %)
         4 (2.6 %)       5 (2.8 %)       6 (9.8 %)       7 (6.0 %)
         8 (100.0 %)     9 (5.4 %)      10 (1.9 %)      11 (19.0 %)
        Total: 283.2%
Initial condition solution time: CPU = 13.745 ms, elapsed = 16.4769 ms.
Intrinsic tran analysis time:    CPU = 434.526 ms, elapsed = 500.541 ms.
Opening mt file:  /CASNFSHOME2/home/sstatthoudakis/Documents/spectre/Gates/NOR2/nor_validate/corners/corner_pin2/gate_load/nor_ss.mt5
Total time required for tran analysis `transient6': CPU = 458.058 ms, elapsed = 578.311 ms, util. = 79.2%.
Time accumulated: CPU = 4.07855 s, elapsed = 7.46152 s.
Peak resident memory used = 148 Mbytes.


*************************
Alter Group `altergroup6'
*************************
Time for altergroup6: CPU = 18.199 ms, elapsed = 18.5289 ms.
Time accumulated: CPU = 4.09685 s, elapsed = 7.48107 s.
Peak resident memory used = 148 Mbytes.


*****************************************************
Transient Analysis `transient7': time = (0 s -> 2 ns)
*****************************************************

Notice from spectre during IC analysis `timeSweep_cloned_6', during transient analysis `transient7'.
    GminDC = 1 pS is large enough to noticeably affect the DC solution.
        dV(nor6.net16) = 22.0483 mV
        Use the `gmin_check' option to eliminate or expand this report.

DC simulation time: CPU = 14.212 ms, elapsed = 15.815 ms.

Notice from spectre during transient analysis `transient7'.
    No outputs were found. Loosening output filter criterion to `allpub'.


Opening the PSFXL file ./nor_ss.raw/transient7.tran.tran ...
Important parameter values:
    start = 0 s
    outputstart = 0 s
    stop = 2 ns
    step = 100 fs
    maxstep = 40 ps
    ic = all
    useprevic = no
    skipdc = no
    reltol = 1e-03
    abstol(V) = 1 uV
    abstol(I) = 1 pA
    temp = 0 C
    tnom = 27 C
    tempeffects = all
    errpreset = moderate
    method = traponly
    lteratio = 3.5
    relref = sigglobal
    cmin = 0 F
    gmin = 1 pS


Output and IC/nodeset summary:
                 probe  2       
                 save   3       (current)
                 save   563     (voltage)

......9......8......7......6......5......4......3......2......1......0
Number of accepted tran steps =             161

Maximum value achieved for any signal of each quantity: 
V: V(nor1_fanout4.nor11.net16) = 1.024 V
I: I(VVDD:p) = 136.4 uA
If your circuit contains signals of the same quantity that are vastly different in size (such as high voltage circuitry combined with low voltage control circuitry), you should consider specifying global option `bin_relref=yes'.

~~~~~~~~~~~~~~~~~~~~~~~~~~~~~~~~~
Post-Transient Simulation Summary
~~~~~~~~~~~~~~~~~~~~~~~~~~~~~~~~~
   -   To further speed up simulation, consider
          add ++aps on command line
~~~~~~~~~~~~~~~~~~~~~~~~~~~~~~~~~


During simulation, the CPU load for active processors is :
         0 (20.2 %)      1 (4.5 %)       2 (100.0 %)     3 (14.8 %)
         4 (2.4 %)       5 (2.7 %)       6 (9.1 %)       7 (5.5 %)
         8 (100.0 %)     9 (5.0 %)      10 (1.8 %)      11 (18.3 %)
        Total: 284.2%
Initial condition solution time: CPU = 14.274 ms, elapsed = 16.1998 ms.
Intrinsic tran analysis time:    CPU = 454.844 ms, elapsed = 506.454 ms.
Opening mt file:  /CASNFSHOME2/home/sstatthoudakis/Documents/spectre/Gates/NOR2/nor_validate/corners/corner_pin2/gate_load/nor_ss.mt6
Total time required for tran analysis `transient7': CPU = 478.868 ms, elapsed = 588.43 ms, util. = 81.4%.
Time accumulated: CPU = 4.59287 s, elapsed = 8.14299 s.
Peak resident memory used = 148 Mbytes.


*************************
Alter Group `altergroup7'
*************************
Time for altergroup7: CPU = 18.706 ms, elapsed = 19.0451 ms.
Time accumulated: CPU = 4.61168 s, elapsed = 8.16338 s.
Peak resident memory used = 148 Mbytes.


*****************************************************
Transient Analysis `transient8': time = (0 s -> 2 ns)
*****************************************************

Notice from spectre during IC analysis `timeSweep_cloned_7', during transient analysis `transient8'.
    GminDC = 1 pS is large enough to noticeably affect the DC solution.
        dV(nor9_fanout4.nor11.net16) = 7.64997 mV
        Use the `gmin_check' option to eliminate or expand this report.

DC simulation time: CPU = 14.123 ms, elapsed = 16.0851 ms.

Notice from spectre during transient analysis `transient8'.
    No outputs were found. Loosening output filter criterion to `allpub'.


Opening the PSFXL file ./nor_ss.raw/transient8.tran.tran ...
Important parameter values:
    start = 0 s
    outputstart = 0 s
    stop = 2 ns
    step = 100 fs
    maxstep = 40 ps
    ic = all
    useprevic = no
    skipdc = no
    reltol = 1e-03
    abstol(V) = 1 uV
    abstol(I) = 1 pA
    temp = 50 C
    tnom = 27 C
    tempeffects = all
    errpreset = moderate
    method = traponly
    lteratio = 3.5
    relref = sigglobal
    cmin = 0 F
    gmin = 1 pS


Output and IC/nodeset summary:
                 probe  2       
                 save   3       (current)
                 save   563     (voltage)

.

Notice from spectre at time = 65.8988 ps during transient analysis `transient8'.
    Found trapezoidal ringing on node VGND:p.

......9......8......7......6......5......4......3......2......1......0
Number of accepted tran steps =             161

Notice from spectre during transient analysis `transient8'.
    Trapezoidal ringing is detected during tran analysis.
        Please use method=trap for better results and performance.


Maximum value achieved for any signal of each quantity: 
V: V(nor1.net16) = 1.018 V
I: I(VVDD:p) = 137.9 uA
If your circuit contains signals of the same quantity that are vastly different in size (such as high voltage circuitry combined with low voltage control circuitry), you should consider specifying global option `bin_relref=yes'.

~~~~~~~~~~~~~~~~~~~~~~~~~~~~~~~~~
Post-Transient Simulation Summary
~~~~~~~~~~~~~~~~~~~~~~~~~~~~~~~~~
   -   To further speed up simulation, consider
          add ++aps on command line
~~~~~~~~~~~~~~~~~~~~~~~~~~~~~~~~~


During simulation, the CPU load for active processors is :
         0 (24.8 %)      1 (4.2 %)       2 (100.0 %)     3 (14.3 %)
         4 (2.7 %)       5 (2.6 %)       6 (8.3 %)       7 (5.1 %)
         8 (100.0 %)     9 (4.6 %)      10 (1.7 %)      11 (17.1 %)
        Total: 285.3%
Initial condition solution time: CPU = 14.179 ms, elapsed = 16.5739 ms.
Intrinsic tran analysis time:    CPU = 452.866 ms, elapsed = 515.745 ms.
Opening mt file:  /CASNFSHOME2/home/sstatthoudakis/Documents/spectre/Gates/NOR2/nor_validate/corners/corner_pin2/gate_load/nor_ss.mt7
Total time required for tran analysis `transient8': CPU = 476.915 ms, elapsed = 589.394 ms, util. = 80.9%.
Time accumulated: CPU = 5.1143 s, elapsed = 8.84151 s.
Peak resident memory used = 148 Mbytes.


*************************
Alter Group `altergroup8'
*************************
Time for altergroup8: CPU = 29.809 ms, elapsed = 30.3981 ms.
Time accumulated: CPU = 5.14443 s, elapsed = 8.87447 s.
Peak resident memory used = 148 Mbytes.


*****************************************************
Transient Analysis `transient9': time = (0 s -> 2 ns)
*****************************************************

Notice from spectre during IC analysis `timeSweep_cloned_8', during transient analysis `transient9'.
    GminDC = 1 pS is large enough to noticeably affect the DC solution.
        dV(nor6.net16) = 287.167 uV
        Use the `gmin_check' option to eliminate or expand this report.

DC simulation time: CPU = 16.647 ms, elapsed = 18.0321 ms.

Notice from spectre during transient analysis `transient9'.
    No outputs were found. Loosening output filter criterion to `allpub'.


Opening the PSFXL file ./nor_ss.raw/transient9.tran.tran ...
Important parameter values:
    start = 0 s
    outputstart = 0 s
    stop = 2 ns
    step = 100 fs
    maxstep = 40 ps
    ic = all
    useprevic = no
    skipdc = no
    reltol = 1e-03
    abstol(V) = 1 uV
    abstol(I) = 1 pA
    temp = 125 C
    tnom = 27 C
    tempeffects = all
    errpreset = moderate
    method = traponly
    lteratio = 3.5
    relref = sigglobal
    cmin = 0 F
    gmin = 1 pS


Output and IC/nodeset summary:
                 probe  2       
                 save   3       (current)
                 save   563     (voltage)

.

Notice from spectre at time = 65.6491 ps during transient analysis `transient9'.
    Found trapezoidal ringing on node VGND:p.

......9......8......7......6......5......4......3......2......1......0
Number of accepted tran steps =             160

Notice from spectre during transient analysis `transient9'.
    Trapezoidal ringing is detected during tran analysis.
        Please use method=trap for better results and performance.


Maximum value achieved for any signal of each quantity: 
V: V(nor1.net16) = 1.012 V
I: I(VVDD:p) = 125.9 uA
If your circuit contains signals of the same quantity that are vastly different in size (such as high voltage circuitry combined with low voltage control circuitry), you should consider specifying global option `bin_relref=yes'.

~~~~~~~~~~~~~~~~~~~~~~~~~~~~~~~~~
Post-Transient Simulation Summary
~~~~~~~~~~~~~~~~~~~~~~~~~~~~~~~~~
   -   To further speed up simulation, consider
          add ++aps on command line
~~~~~~~~~~~~~~~~~~~~~~~~~~~~~~~~~


During simulation, the CPU load for active processors is :
         0 (29.0 %)      1 (3.8 %)       2 (100.0 %)     3 (13.2 %)
         4 (2.4 %)       5 (2.6 %)       6 (7.9 %)       7 (4.7 %)
         8 (100.0 %)     9 (4.4 %)      10 (1.6 %)      11 (15.8 %)
        Total: 285.3%
Initial condition solution time: CPU = 16.715 ms, elapsed = 18.4021 ms.
Intrinsic tran analysis time:    CPU = 480.738 ms, elapsed = 541.973 ms.
Opening mt file:  /CASNFSHOME2/home/sstatthoudakis/Documents/spectre/Gates/NOR2/nor_validate/corners/corner_pin2/gate_load/nor_ss.mt8
Total time required for tran analysis `transient9': CPU = 505.052 ms, elapsed = 608.413 ms, util. = 83%.
Time accumulated: CPU = 5.66095 s, elapsed = 9.54798 s.
Peak resident memory used = 148 Mbytes.


*************************
Alter Group `altergroup9'
*************************
Time for altergroup9: CPU = 20.077 ms, elapsed = 20.6418 ms.
Time accumulated: CPU = 5.68115 s, elapsed = 9.5707 s.
Peak resident memory used = 148 Mbytes.


******************************************************
Transient Analysis `transient10': time = (0 s -> 2 ns)
******************************************************

Notice from spectre during IC analysis `timeSweep_cloned_9', during transient analysis `transient10'.
    GminDC = 1 pS is large enough to noticeably affect the DC solution.
        dV(nor2.net16) = 22.0804 mV
        Use the `gmin_check' option to eliminate or expand this report.

DC simulation time: CPU = 13.913 ms, elapsed = 15.3599 ms.

Notice from spectre during transient analysis `transient10'.
    No outputs were found. Loosening output filter criterion to `allpub'.


Opening the PSFXL file ./nor_ss.raw/transient10.tran.tran ...
Important parameter values:
    start = 0 s
    outputstart = 0 s
    stop = 2 ns
    step = 100 fs
    maxstep = 40 ps
    ic = all
    useprevic = no
    skipdc = no
    reltol = 1e-03
    abstol(V) = 1 uV
    abstol(I) = 1 pA
    temp = 0 C
    tnom = 27 C
    tempeffects = all
    errpreset = moderate
    method = traponly
    lteratio = 3.5
    relref = sigglobal
    cmin = 0 F
    gmin = 1 pS


Output and IC/nodeset summary:
                 probe  2       
                 save   3       (current)
                 save   563     (voltage)

......9......8......7......6......5......4......3......2......1......0
Number of accepted tran steps =             165

Maximum value achieved for any signal of each quantity: 
V: V(nor6_fanout4.nor13.net16) = 1.034 V
I: I(VVDD:p) = 142.3 uA
If your circuit contains signals of the same quantity that are vastly different in size (such as high voltage circuitry combined with low voltage control circuitry), you should consider specifying global option `bin_relref=yes'.

~~~~~~~~~~~~~~~~~~~~~~~~~~~~~~~~~
Post-Transient Simulation Summary
~~~~~~~~~~~~~~~~~~~~~~~~~~~~~~~~~
   -   To further speed up simulation, consider
          add ++aps on command line
~~~~~~~~~~~~~~~~~~~~~~~~~~~~~~~~~


During simulation, the CPU load for active processors is :
         0 (32.0 %)      1 (4.0 %)       2 (100.0 %)     3 (12.6 %)
         4 (2.4 %)       5 (2.6 %)       6 (7.7 %)       7 (4.6 %)
         8 (100.0 %)     9 (4.1 %)      10 (1.5 %)      11 (14.9 %)
        Total: 286.2%
Initial condition solution time: CPU = 13.973 ms, elapsed = 15.718 ms.
Intrinsic tran analysis time:    CPU = 442.337 ms, elapsed = 527.12 ms.
Opening mt file:  /CASNFSHOME2/home/sstatthoudakis/Documents/spectre/Gates/NOR2/nor_validate/corners/corner_pin2/gate_load/nor_ss.mt9
Total time required for tran analysis `transient10': CPU = 463.22 ms, elapsed = 562.299 ms, util. = 82.4%.
Time accumulated: CPU = 6.16227 s, elapsed = 10.2073 s.
Peak resident memory used = 148 Mbytes.


**************************
Alter Group `altergroup10'
**************************
Time for altergroup10: CPU = 21.876 ms, elapsed = 22.172 ms.
Time accumulated: CPU = 6.18432 s, elapsed = 10.2307 s.
Peak resident memory used = 148 Mbytes.


******************************************************
Transient Analysis `transient11': time = (0 s -> 2 ns)
******************************************************

Notice from spectre during IC analysis `timeSweep_cloned_10', during transient analysis `transient11'.
    GminDC = 1 pS is large enough to noticeably affect the DC solution.
        dV(nor9_fanout4.nor11.net16) = 7.65553 mV
        Use the `gmin_check' option to eliminate or expand this report.

DC simulation time: CPU = 13.77 ms, elapsed = 15.2318 ms.

Notice from spectre during transient analysis `transient11'.
    No outputs were found. Loosening output filter criterion to `allpub'.


Opening the PSFXL file ./nor_ss.raw/transient11.tran.tran ...
Important parameter values:
    start = 0 s
    outputstart = 0 s
    stop = 2 ns
    step = 100 fs
    maxstep = 40 ps
    ic = all
    useprevic = no
    skipdc = no
    reltol = 1e-03
    abstol(V) = 1 uV
    abstol(I) = 1 pA
    temp = 50 C
    tnom = 27 C
    tempeffects = all
    errpreset = moderate
    method = traponly
    lteratio = 3.5
    relref = sigglobal
    cmin = 0 F
    gmin = 1 pS


Output and IC/nodeset summary:
                 probe  2       
                 save   3       (current)
                 save   563     (voltage)

.

Notice from spectre at time = 66.3637 ps during transient analysis `transient11'.
    Found trapezoidal ringing on node VGND:p.

......9......8......7......6......5......4......3......2......1......0
Number of accepted tran steps =             164

Notice from spectre during transient analysis `transient11'.
    Trapezoidal ringing is detected during tran analysis.
        Please use method=trap for better results and performance.


Maximum value achieved for any signal of each quantity: 
V: V(nor1.net16) = 1.027 V
I: I(VVDD:p) = 138.7 uA
If your circuit contains signals of the same quantity that are vastly different in size (such as high voltage circuitry combined with low voltage control circuitry), you should consider specifying global option `bin_relref=yes'.

~~~~~~~~~~~~~~~~~~~~~~~~~~~~~~~~~
Post-Transient Simulation Summary
~~~~~~~~~~~~~~~~~~~~~~~~~~~~~~~~~
   -   To further speed up simulation, consider
          add ++aps on command line
~~~~~~~~~~~~~~~~~~~~~~~~~~~~~~~~~


During simulation, the CPU load for active processors is :
         0 (35.0 %)      1 (3.7 %)       2 (100.0 %)     3 (11.8 %)
         4 (2.4 %)       5 (2.5 %)       6 (7.2 %)       7 (4.3 %)
         8 (100.0 %)     9 (4.0 %)      10 (1.4 %)      11 (14.0 %)
        Total: 286.4%
Initial condition solution time: CPU = 13.825 ms, elapsed = 15.656 ms.
Intrinsic tran analysis time:    CPU = 449.172 ms, elapsed = 501.613 ms.
Opening mt file:  /CASNFSHOME2/home/sstatthoudakis/Documents/spectre/Gates/NOR2/nor_validate/corners/corner_pin2/gate_load/nor_ss.mt10
Total time required for tran analysis `transient11': CPU = 477.4 ms, elapsed = 571.493 ms, util. = 83.5%.
Time accumulated: CPU = 6.67485 s, elapsed = 10.8665 s.
Peak resident memory used = 148 Mbytes.


**************************
Alter Group `altergroup11'
**************************
Time for altergroup11: CPU = 17.7 ms, elapsed = 18.0681 ms.
Time accumulated: CPU = 6.69264 s, elapsed = 10.8859 s.
Peak resident memory used = 148 Mbytes.


******************************************************
Transient Analysis `transient12': time = (0 s -> 2 ns)
******************************************************

Notice from spectre during IC analysis `timeSweep_cloned_11', during transient analysis `transient12'.
    GminDC = 1 pS is large enough to noticeably affect the DC solution.
        dV(nor6.net16) = 287.885 uV
        Use the `gmin_check' option to eliminate or expand this report.

DC simulation time: CPU = 13.89 ms, elapsed = 15.439 ms.

Notice from spectre during transient analysis `transient12'.
    No outputs were found. Loosening output filter criterion to `allpub'.


Opening the PSFXL file ./nor_ss.raw/transient12.tran.tran ...
Important parameter values:
    start = 0 s
    outputstart = 0 s
    stop = 2 ns
    step = 100 fs
    maxstep = 40 ps
    ic = all
    useprevic = no
    skipdc = no
    reltol = 1e-03
    abstol(V) = 1 uV
    abstol(I) = 1 pA
    temp = 125 C
    tnom = 27 C
    tempeffects = all
    errpreset = moderate
    method = traponly
    lteratio = 3.5
    relref = sigglobal
    cmin = 0 F
    gmin = 1 pS


Output and IC/nodeset summary:
                 probe  2       
                 save   3       (current)
                 save   563     (voltage)

.

Notice from spectre at time = 66.0301 ps during transient analysis `transient12'.
    Found trapezoidal ringing on node VGND:p.

......9......8......7......6......5......4......3......2......1......0
Number of accepted tran steps =             163

Notice from spectre during transient analysis `transient12'.
    Trapezoidal ringing is detected during tran analysis.
        Please use method=trap for better results and performance.


Maximum value achieved for any signal of each quantity: 
V: V(nor1.net16) = 1.022 V
I: I(VVDD:p) = 113 uA
If your circuit contains signals of the same quantity that are vastly different in size (such as high voltage circuitry combined with low voltage control circuitry), you should consider specifying global option `bin_relref=yes'.

~~~~~~~~~~~~~~~~~~~~~~~~~~~~~~~~~
Post-Transient Simulation Summary
~~~~~~~~~~~~~~~~~~~~~~~~~~~~~~~~~
   -   To further speed up simulation, consider
          add ++aps on command line
~~~~~~~~~~~~~~~~~~~~~~~~~~~~~~~~~


During simulation, the CPU load for active processors is :
         0 (37.4 %)      1 (3.5 %)       2 (100.0 %)     3 (11.3 %)
         4 (2.3 %)       5 (2.7 %)       6 (7.0 %)       7 (4.1 %)
         8 (100.0 %)     9 (3.9 %)      10 (1.3 %)      11 (13.2 %)
        Total: 286.6%
Initial condition solution time: CPU = 13.946 ms, elapsed = 15.8219 ms.
Intrinsic tran analysis time:    CPU = 433.452 ms, elapsed = 493.957 ms.
Opening mt file:  /CASNFSHOME2/home/sstatthoudakis/Documents/spectre/Gates/NOR2/nor_validate/corners/corner_pin2/gate_load/nor_ss.mt11
Total time required for tran analysis `transient12': CPU = 454.142 ms, elapsed = 558.609 ms, util. = 81.3%.
Time accumulated: CPU = 7.15825 s, elapsed = 11.5492 s.
Peak resident memory used = 148 Mbytes.


**************************
Alter Group `altergroup12'
**************************
Time for altergroup12: CPU = 17.961 ms, elapsed = 18.292 ms.
Time accumulated: CPU = 7.17631 s, elapsed = 11.5685 s.
Peak resident memory used = 148 Mbytes.


******************************************************
Transient Analysis `transient13': time = (0 s -> 2 ns)
******************************************************

Notice from spectre during IC analysis `timeSweep_cloned_12', during transient analysis `transient13'.
    GminDC = 1 pS is large enough to noticeably affect the DC solution.
        dV(nor2.net16) = 22.0498 mV
        Use the `gmin_check' option to eliminate or expand this report.

DC simulation time: CPU = 11.791 ms, elapsed = 13.3781 ms.

Notice from spectre during transient analysis `transient13'.
    No outputs were found. Loosening output filter criterion to `allpub'.


Opening the PSFXL file ./nor_ss.raw/transient13.tran.tran ...
Important parameter values:
    start = 0 s
    outputstart = 0 s
    stop = 2 ns
    step = 100 fs
    maxstep = 40 ps
    ic = all
    useprevic = no
    skipdc = no
    reltol = 1e-03
    abstol(V) = 1 uV
    abstol(I) = 1 pA
    temp = 0 C
    tnom = 27 C
    tempeffects = all
    errpreset = moderate
    method = traponly
    lteratio = 3.5
    relref = sigglobal
    cmin = 0 F
    gmin = 1 pS


Output and IC/nodeset summary:
                 probe  2       
                 save   3       (current)
                 save   563     (voltage)

......9......8......7......6......5......4......3......2......1......0
Number of accepted tran steps =             170

Maximum value achieved for any signal of each quantity: 
V: V(nor8_fanout4.nor13.net16) = 1.044 V
I: I(VVDD:p) = 139.4 uA
If your circuit contains signals of the same quantity that are vastly different in size (such as high voltage circuitry combined with low voltage control circuitry), you should consider specifying global option `bin_relref=yes'.

~~~~~~~~~~~~~~~~~~~~~~~~~~~~~~~~~
Post-Transient Simulation Summary
~~~~~~~~~~~~~~~~~~~~~~~~~~~~~~~~~
   -   To further speed up simulation, consider
          add ++aps on command line
~~~~~~~~~~~~~~~~~~~~~~~~~~~~~~~~~


During simulation, the CPU load for active processors is :
         0 (39.5 %)      1 (3.5 %)       2 (100.0 %)     3 (10.8 %)
         4 (2.4 %)       5 (2.9 %)       6 (6.7 %)       7 (4.0 %)
         8 (100.0 %)     9 (3.8 %)      10 (1.2 %)      11 (12.5 %)
        Total: 287.4%
Initial condition solution time: CPU = 11.845 ms, elapsed = 13.793 ms.
Intrinsic tran analysis time:    CPU = 454.187 ms, elapsed = 511.849 ms.
Opening mt file:  /CASNFSHOME2/home/sstatthoudakis/Documents/spectre/Gates/NOR2/nor_validate/corners/corner_pin2/gate_load/nor_ss.mt12
Total time required for tran analysis `transient13': CPU = 474.445 ms, elapsed = 575.941 ms, util. = 82.4%.
Time accumulated: CPU = 7.66419 s, elapsed = 12.2233 s.
Peak resident memory used = 148 Mbytes.


**************************
Alter Group `altergroup13'
**************************
Time for altergroup13: CPU = 22.108 ms, elapsed = 22.6619 ms.
Time accumulated: CPU = 7.68644 s, elapsed = 12.2478 s.
Peak resident memory used = 148 Mbytes.


******************************************************
Transient Analysis `transient14': time = (0 s -> 2 ns)
******************************************************

Notice from spectre during IC analysis `timeSweep_cloned_13', during transient analysis `transient14'.
    GminDC = 1 pS is large enough to noticeably affect the DC solution.
        dV(nor9_fanout4.nor11.net16) = 7.66048 mV
        Use the `gmin_check' option to eliminate or expand this report.

DC simulation time: CPU = 14.228 ms, elapsed = 15.8501 ms.

Notice from spectre during transient analysis `transient14'.
    No outputs were found. Loosening output filter criterion to `allpub'.


Opening the PSFXL file ./nor_ss.raw/transient14.tran.tran ...
Important parameter values:
    start = 0 s
    outputstart = 0 s
    stop = 2 ns
    step = 100 fs
    maxstep = 40 ps
    ic = all
    useprevic = no
    skipdc = no
    reltol = 1e-03
    abstol(V) = 1 uV
    abstol(I) = 1 pA
    temp = 50 C
    tnom = 27 C
    tempeffects = all
    errpreset = moderate
    method = traponly
    lteratio = 3.5
    relref = sigglobal
    cmin = 0 F
    gmin = 1 pS


Output and IC/nodeset summary:
                 probe  2       
                 save   3       (current)
                 save   563     (voltage)

.

Notice from spectre at time = 66.8386 ps during transient analysis `transient14'.
    Found trapezoidal ringing on node VGND:p.

......9......8......7......6......5......4......3......2......1......0
Number of accepted tran steps =             169

Notice from spectre during transient analysis `transient14'.
    Trapezoidal ringing is detected during tran analysis.
        Please use method=trap for better results and performance.


Maximum value achieved for any signal of each quantity: 
V: V(nor1.net16) = 1.037 V
I: I(VVDD:p) = 133.9 uA
If your circuit contains signals of the same quantity that are vastly different in size (such as high voltage circuitry combined with low voltage control circuitry), you should consider specifying global option `bin_relref=yes'.

~~~~~~~~~~~~~~~~~~~~~~~~~~~~~~~~~
Post-Transient Simulation Summary
~~~~~~~~~~~~~~~~~~~~~~~~~~~~~~~~~
   -   To further speed up simulation, consider
          add ++aps on command line
~~~~~~~~~~~~~~~~~~~~~~~~~~~~~~~~~


During simulation, the CPU load for active processors is :
         0 (41.4 %)      1 (3.3 %)       2 (100.0 %)     3 (10.4 %)
         4 (2.3 %)       5 (3.0 %)       6 (6.4 %)       7 (3.8 %)
         8 (100.0 %)     9 (3.7 %)      10 (1.3 %)      11 (11.9 %)
        Total: 287.4%
Initial condition solution time: CPU = 14.29 ms, elapsed = 16.2289 ms.
Intrinsic tran analysis time:    CPU = 464.975 ms, elapsed = 533.236 ms.
Opening mt file:  /CASNFSHOME2/home/sstatthoudakis/Documents/spectre/Gates/NOR2/nor_validate/corners/corner_pin2/gate_load/nor_ss.mt13
Total time required for tran analysis `transient14': CPU = 486.657 ms, elapsed = 601.026 ms, util. = 81%.
Time accumulated: CPU = 8.18712 s, elapsed = 12.9231 s.
Peak resident memory used = 148 Mbytes.


**************************
Alter Group `altergroup14'
**************************
Time for altergroup14: CPU = 20.717 ms, elapsed = 21.255 ms.
Time accumulated: CPU = 8.20796 s, elapsed = 12.9458 s.
Peak resident memory used = 148 Mbytes.


******************************************************
Transient Analysis `transient15': time = (0 s -> 2 ns)
******************************************************

Notice from spectre during IC analysis `timeSweep_cloned_14', during transient analysis `transient15'.
    GminDC = 1 pS is large enough to noticeably affect the DC solution.
        dV(nor6.net16) = 288.563 uV
        Use the `gmin_check' option to eliminate or expand this report.

DC simulation time: CPU = 14.341 ms, elapsed = 16.196 ms.

Notice from spectre during transient analysis `transient15'.
    No outputs were found. Loosening output filter criterion to `allpub'.


Opening the PSFXL file ./nor_ss.raw/transient15.tran.tran ...
Important parameter values:
    start = 0 s
    outputstart = 0 s
    stop = 2 ns
    step = 100 fs
    maxstep = 40 ps
    ic = all
    useprevic = no
    skipdc = no
    reltol = 1e-03
    abstol(V) = 1 uV
    abstol(I) = 1 pA
    temp = 125 C
    tnom = 27 C
    tempeffects = all
    errpreset = moderate
    method = traponly
    lteratio = 3.5
    relref = sigglobal
    cmin = 0 F
    gmin = 1 pS


Output and IC/nodeset summary:
                 probe  2       
                 save   3       (current)
                 save   563     (voltage)

.

Notice from spectre at time = 66.4177 ps during transient analysis `transient15'.
    Found trapezoidal ringing on node VGND:p.

......9......8......7......6......5......4......3......2......1......0
Number of accepted tran steps =             173

Notice from spectre during transient analysis `transient15'.
    Trapezoidal ringing is detected during tran analysis.
        Please use method=trap for better results and performance.


Maximum value achieved for any signal of each quantity: 
V: V(nor1.net16) = 1.031 V
I: I(VVDD:p) = 104 uA
If your circuit contains signals of the same quantity that are vastly different in size (such as high voltage circuitry combined with low voltage control circuitry), you should consider specifying global option `bin_relref=yes'.

~~~~~~~~~~~~~~~~~~~~~~~~~~~~~~~~~
Post-Transient Simulation Summary
~~~~~~~~~~~~~~~~~~~~~~~~~~~~~~~~~
   -   To further speed up simulation, consider
          add ++aps on command line
~~~~~~~~~~~~~~~~~~~~~~~~~~~~~~~~~


During simulation, the CPU load for active processors is :
         0 (43.3 %)      1 (3.4 %)       2 (100.0 %)     3 (10.0 %)
         4 (2.4 %)       5 (3.0 %)       6 (6.2 %)       7 (3.6 %)
         8 (100.0 %)     9 (3.5 %)      10 (1.3 %)      11 (11.3 %)
        Total: 288.0%
Initial condition solution time: CPU = 14.413 ms, elapsed = 16.7699 ms.
Intrinsic tran analysis time:    CPU = 480.164 ms, elapsed = 540.228 ms.
Opening mt file:  /CASNFSHOME2/home/sstatthoudakis/Documents/spectre/Gates/NOR2/nor_validate/corners/corner_pin2/gate_load/nor_ss.mt14
Total time required for tran analysis `transient15': CPU = 501.171 ms, elapsed = 606.298 ms, util. = 82.7%.
Time accumulated: CPU = 8.72112 s, elapsed = 13.6275 s.
Peak resident memory used = 148 Mbytes.


**************************
Alter Group `altergroup15'
**************************
Time for altergroup15: CPU = 17.724 ms, elapsed = 18.4019 ms.
Time accumulated: CPU = 8.73896 s, elapsed = 13.648 s.
Peak resident memory used = 148 Mbytes.


******************************************************
Transient Analysis `transient16': time = (0 s -> 2 ns)
******************************************************

Notice from spectre during IC analysis `timeSweep_cloned_15', during transient analysis `transient16'.
    GminDC = 1 pS is large enough to noticeably affect the DC solution.
        dV(nor5_fanout4.nor12.net16) = 22.1745 mV
        Use the `gmin_check' option to eliminate or expand this report.

DC simulation time: CPU = 18.683 ms, elapsed = 20.411 ms.

Notice from spectre during transient analysis `transient16'.
    No outputs were found. Loosening output filter criterion to `allpub'.


Opening the PSFXL file ./nor_ss.raw/transient16.tran.tran ...
Important parameter values:
    start = 0 s
    outputstart = 0 s
    stop = 2 ns
    step = 100 fs
    maxstep = 40 ps
    ic = all
    useprevic = no
    skipdc = no
    reltol = 1e-03
    abstol(V) = 1 uV
    abstol(I) = 1 pA
    temp = 0 C
    tnom = 27 C
    tempeffects = all
    errpreset = moderate
    method = traponly
    lteratio = 3.5
    relref = sigglobal
    cmin = 0 F
    gmin = 1 pS


Output and IC/nodeset summary:
                 probe  2       
                 save   3       (current)
                 save   563     (voltage)

......9......8......7......6......5......4......3......2......1......0
Number of accepted tran steps =             172

Maximum value achieved for any signal of each quantity: 
V: V(nor8_fanout4.nor11.net16) = 1.052 V
I: I(VVDD:p) = 129.9 uA
If your circuit contains signals of the same quantity that are vastly different in size (such as high voltage circuitry combined with low voltage control circuitry), you should consider specifying global option `bin_relref=yes'.

~~~~~~~~~~~~~~~~~~~~~~~~~~~~~~~~~
Post-Transient Simulation Summary
~~~~~~~~~~~~~~~~~~~~~~~~~~~~~~~~~
   -   To further speed up simulation, consider
          add ++aps on command line
~~~~~~~~~~~~~~~~~~~~~~~~~~~~~~~~~


During simulation, the CPU load for active processors is :
         0 (44.9 %)      1 (3.4 %)       2 (100.0 %)     3 (9.5 %)
         4 (2.3 %)       5 (3.1 %)       6 (6.0 %)       7 (3.5 %)
         8 (100.0 %)     9 (3.4 %)      10 (1.2 %)      11 (10.8 %)
        Total: 288.1%
Initial condition solution time: CPU = 18.751 ms, elapsed = 20.8459 ms.
Intrinsic tran analysis time:    CPU = 488.741 ms, elapsed = 560.698 ms.
Opening mt file:  /CASNFSHOME2/home/sstatthoudakis/Documents/spectre/Gates/NOR2/nor_validate/corners/corner_pin2/gate_load/nor_ss.mt15
Total time required for tran analysis `transient16': CPU = 514.392 ms, elapsed = 633.255 ms, util. = 81.2%.
Time accumulated: CPU = 9.26545 s, elapsed = 14.3659 s.
Peak resident memory used = 148 Mbytes.


**************************
Alter Group `altergroup16'
**************************
Time for altergroup16: CPU = 18.552 ms, elapsed = 18.98 ms.
Time accumulated: CPU = 9.28411 s, elapsed = 14.3863 s.
Peak resident memory used = 148 Mbytes.


******************************************************
Transient Analysis `transient17': time = (0 s -> 2 ns)
******************************************************

Notice from spectre during IC analysis `timeSweep_cloned_16', during transient analysis `transient17'.
    GminDC = 1 pS is large enough to noticeably affect the DC solution.
        dV(nor9_fanout4.nor12.net16) = 7.66485 mV
        Use the `gmin_check' option to eliminate or expand this report.

DC simulation time: CPU = 14.49 ms, elapsed = 16.3488 ms.

Notice from spectre during transient analysis `transient17'.
    No outputs were found. Loosening output filter criterion to `allpub'.


Opening the PSFXL file ./nor_ss.raw/transient17.tran.tran ...
Important parameter values:
    start = 0 s
    outputstart = 0 s
    stop = 2 ns
    step = 100 fs
    maxstep = 40 ps
    ic = all
    useprevic = no
    skipdc = no
    reltol = 1e-03
    abstol(V) = 1 uV
    abstol(I) = 1 pA
    temp = 50 C
    tnom = 27 C
    tempeffects = all
    errpreset = moderate
    method = traponly
    lteratio = 3.5
    relref = sigglobal
    cmin = 0 F
    gmin = 1 pS


Output and IC/nodeset summary:
                 probe  2       
                 save   3       (current)
                 save   563     (voltage)

.

Notice from spectre at time = 67.2469 ps during transient analysis `transient17'.
    Found trapezoidal ringing on node VGND:p.

......9......8......7......6......5......4......3......2......1......0
Number of accepted tran steps =             172

Notice from spectre during transient analysis `transient17'.
    Trapezoidal ringing is detected during tran analysis.
        Please use method=trap for better results and performance.


Maximum value achieved for any signal of each quantity: 
V: V(nor1.net16) = 1.047 V
I: I(VVDD:p) = 119.6 uA
If your circuit contains signals of the same quantity that are vastly different in size (such as high voltage circuitry combined with low voltage control circuitry), you should consider specifying global option `bin_relref=yes'.

~~~~~~~~~~~~~~~~~~~~~~~~~~~~~~~~~
Post-Transient Simulation Summary
~~~~~~~~~~~~~~~~~~~~~~~~~~~~~~~~~
   -   To further speed up simulation, consider
          add ++aps on command line
~~~~~~~~~~~~~~~~~~~~~~~~~~~~~~~~~


During simulation, the CPU load for active processors is :
         0 (46.4 %)      1 (3.3 %)       2 (100.0 %)     3 (9.4 %)
         4 (2.5 %)       5 (3.0 %)       6 (5.7 %)       7 (3.4 %)
         8 (100.0 %)     9 (3.3 %)      10 (1.1 %)      11 (10.3 %)
        Total: 288.4%
Initial condition solution time: CPU = 14.56 ms, elapsed = 16.937 ms.
Intrinsic tran analysis time:    CPU = 491.909 ms, elapsed = 578.825 ms.
Opening mt file:  /CASNFSHOME2/home/sstatthoudakis/Documents/spectre/Gates/NOR2/nor_validate/corners/corner_pin2/gate_load/nor_ss.mt16
Total time required for tran analysis `transient17': CPU = 513.512 ms, elapsed = 648.605 ms, util. = 79.2%.
Time accumulated: CPU = 9.80944 s, elapsed = 15.1141 s.
Peak resident memory used = 148 Mbytes.


**************************
Alter Group `altergroup17'
**************************
Time for altergroup17: CPU = 18.221 ms, elapsed = 18.6031 ms.
Time accumulated: CPU = 9.82777 s, elapsed = 15.134 s.
Peak resident memory used = 148 Mbytes.


******************************************************
Transient Analysis `transient18': time = (0 s -> 2 ns)
******************************************************

Notice from spectre during IC analysis `timeSweep_cloned_17', during transient analysis `transient18'.
    GminDC = 1 pS is large enough to noticeably affect the DC solution.
        dV(nor6.net16) = 289.205 uV
        Use the `gmin_check' option to eliminate or expand this report.

DC simulation time: CPU = 14.099 ms, elapsed = 15.722 ms.

Notice from spectre during transient analysis `transient18'.
    No outputs were found. Loosening output filter criterion to `allpub'.


Opening the PSFXL file ./nor_ss.raw/transient18.tran.tran ...
Important parameter values:
    start = 0 s
    outputstart = 0 s
    stop = 2 ns
    step = 100 fs
    maxstep = 40 ps
    ic = all
    useprevic = no
    skipdc = no
    reltol = 1e-03
    abstol(V) = 1 uV
    abstol(I) = 1 pA
    temp = 125 C
    tnom = 27 C
    tempeffects = all
    errpreset = moderate
    method = traponly
    lteratio = 3.5
    relref = sigglobal
    cmin = 0 F
    gmin = 1 pS


Output and IC/nodeset summary:
                 probe  2       
                 save   3       (current)
                 save   563     (voltage)

.

Notice from spectre at time = 66.8117 ps during transient analysis `transient18'.
    Found trapezoidal ringing on node VGND:p.

......9......8......7......6......5......4......3......2......1......0
Number of accepted tran steps =             183

Notice from spectre during transient analysis `transient18'.
    Trapezoidal ringing is detected during tran analysis.
        Please use method=trap for better results and performance.


Maximum value achieved for any signal of each quantity: 
V: V(nor1.net16) = 1.041 V
I: I(VVDD:p) = 113 uA
If your circuit contains signals of the same quantity that are vastly different in size (such as high voltage circuitry combined with low voltage control circuitry), you should consider specifying global option `bin_relref=yes'.

~~~~~~~~~~~~~~~~~~~~~~~~~~~~~~~~~
Post-Transient Simulation Summary
~~~~~~~~~~~~~~~~~~~~~~~~~~~~~~~~~
   -   To further speed up simulation, consider
          add ++aps on command line
~~~~~~~~~~~~~~~~~~~~~~~~~~~~~~~~~


During simulation, the CPU load for active processors is :
         0 (47.7 %)      1 (3.2 %)       2 (100.0 %)     3 (9.1 %)
         4 (2.4 %)       5 (3.2 %)       6 (5.4 %)       7 (3.2 %)
         8 (100.0 %)     9 (3.1 %)      10 (1.2 %)      11 (9.8 %)
        Total: 288.3%
Initial condition solution time: CPU = 14.155 ms, elapsed = 16.17 ms.
Intrinsic tran analysis time:    CPU = 483.365 ms, elapsed = 571.529 ms.
Opening mt file:  /CASNFSHOME2/home/sstatthoudakis/Documents/spectre/Gates/NOR2/nor_validate/corners/corner_pin2/gate_load/nor_ss.mt17
Total time required for tran analysis `transient18': CPU = 504.025 ms, elapsed = 638.442 ms, util. = 78.9%.
Time accumulated: CPU = 10.3433 s, elapsed = 15.8577 s.
Peak resident memory used = 148 Mbytes.


**************************
Alter Group `altergroup18'
**************************
Time for altergroup18: CPU = 18.021 ms, elapsed = 18.919 ms.
Time accumulated: CPU = 10.3614 s, elapsed = 15.8787 s.
Peak resident memory used = 148 Mbytes.


******************************************************
Transient Analysis `transient19': time = (0 s -> 2 ns)
******************************************************

Notice from spectre during IC analysis `timeSweep_cloned_18', during transient analysis `transient19'.
    GminDC = 1 pS is large enough to noticeably affect the DC solution.
        dV(nor5_fanout4.nor13.net16) = 22.1251 mV
        Use the `gmin_check' option to eliminate or expand this report.

DC simulation time: CPU = 18.518 ms, elapsed = 20.206 ms.

Notice from spectre during transient analysis `transient19'.
    No outputs were found. Loosening output filter criterion to `allpub'.


Opening the PSFXL file ./nor_ss.raw/transient19.tran.tran ...
Important parameter values:
    start = 0 s
    outputstart = 0 s
    stop = 2 ns
    step = 100 fs
    maxstep = 40 ps
    ic = all
    useprevic = no
    skipdc = no
    reltol = 1e-03
    abstol(V) = 1 uV
    abstol(I) = 1 pA
    temp = 0 C
    tnom = 27 C
    tempeffects = all
    errpreset = moderate
    method = traponly
    lteratio = 3.5
    relref = sigglobal
    cmin = 0 F
    gmin = 1 pS


Output and IC/nodeset summary:
                 probe  2       
                 save   3       (current)
                 save   563     (voltage)

......9......8......7......6......5......4......3......2......1......0
Number of accepted tran steps =             183

Maximum value achieved for any signal of each quantity: 
V: V(nor6_fanout4.nor13.net16) = 1.062 V
I: I(VVDD:p) = 108.3 uA
If your circuit contains signals of the same quantity that are vastly different in size (such as high voltage circuitry combined with low voltage control circuitry), you should consider specifying global option `bin_relref=yes'.

~~~~~~~~~~~~~~~~~~~~~~~~~~~~~~~~~
Post-Transient Simulation Summary
~~~~~~~~~~~~~~~~~~~~~~~~~~~~~~~~~
   -   To further speed up simulation, consider
          add ++aps on command line
~~~~~~~~~~~~~~~~~~~~~~~~~~~~~~~~~


During simulation, the CPU load for active processors is :
         0 (48.9 %)      1 (4.0 %)       2 (100.0 %)     3 (8.7 %)
         4 (2.9 %)       5 (3.4 %)       6 (5.9 %)       7 (3.2 %)
         8 (100.0 %)     9 (3.8 %)      10 (1.1 %)      11 (9.4 %)
        Total: 291.2%
Initial condition solution time: CPU = 18.575 ms, elapsed = 20.525 ms.
Intrinsic tran analysis time:    CPU = 505.744 ms, elapsed = 583.504 ms.
Opening mt file:  /CASNFSHOME2/home/sstatthoudakis/Documents/spectre/Gates/NOR2/nor_validate/corners/corner_pin2/gate_load/nor_ss.mt18
Total time required for tran analysis `transient19': CPU = 531.064 ms, elapsed = 671.408 ms, util. = 79.1%.
Time accumulated: CPU = 10.904 s, elapsed = 16.6367 s.
Peak resident memory used = 148 Mbytes.


**************************
Alter Group `altergroup19'
**************************
Time for altergroup19: CPU = 17.749 ms, elapsed = 18.538 ms.
Time accumulated: CPU = 10.9218 s, elapsed = 16.6571 s.
Peak resident memory used = 148 Mbytes.


******************************************************
Transient Analysis `transient20': time = (0 s -> 2 ns)
******************************************************

Notice from spectre during IC analysis `timeSweep_cloned_19', during transient analysis `transient20'.
    GminDC = 1 pS is large enough to noticeably affect the DC solution.
        dV(nor9_fanout4.nor12.net16) = 7.66863 mV
        Use the `gmin_check' option to eliminate or expand this report.

DC simulation time: CPU = 13.888 ms, elapsed = 15.7611 ms.

Notice from spectre during transient analysis `transient20'.
    No outputs were found. Loosening output filter criterion to `allpub'.


Opening the PSFXL file ./nor_ss.raw/transient20.tran.tran ...
Important parameter values:
    start = 0 s
    outputstart = 0 s
    stop = 2 ns
    step = 100 fs
    maxstep = 40 ps
    ic = all
    useprevic = no
    skipdc = no
    reltol = 1e-03
    abstol(V) = 1 uV
    abstol(I) = 1 pA
    temp = 50 C
    tnom = 27 C
    tempeffects = all
    errpreset = moderate
    method = traponly
    lteratio = 3.5
    relref = sigglobal
    cmin = 0 F
    gmin = 1 pS


Output and IC/nodeset summary:
                 probe  2       
                 save   3       (current)
                 save   563     (voltage)

.

Notice from spectre at time = 67.453 ps during transient analysis `transient20'.
    Found trapezoidal ringing on node VGND:p.

......9......8......7......6......5......4......3......2......1......0
Number of accepted tran steps =             184

Notice from spectre during transient analysis `transient20'.
    Trapezoidal ringing is detected during tran analysis.
        Please use method=trap for better results and performance.


Maximum value achieved for any signal of each quantity: 
V: V(nor1.net16) = 1.057 V
I: I(VVDD:p) = 110.3 uA
If your circuit contains signals of the same quantity that are vastly different in size (such as high voltage circuitry combined with low voltage control circuitry), you should consider specifying global option `bin_relref=yes'.

~~~~~~~~~~~~~~~~~~~~~~~~~~~~~~~~~
Post-Transient Simulation Summary
~~~~~~~~~~~~~~~~~~~~~~~~~~~~~~~~~
   -   To further speed up simulation, consider
          add ++aps on command line
~~~~~~~~~~~~~~~~~~~~~~~~~~~~~~~~~


During simulation, the CPU load for active processors is :
         0 (50.0 %)      1 (4.0 %)       2 (100.0 %)     3 (8.4 %)
         4 (2.7 %)       5 (3.4 %)       6 (5.7 %)       7 (3.1 %)
         8 (100.0 %)     9 (3.6 %)      10 (1.1 %)      11 (8.9 %)
        Total: 290.9%
Initial condition solution time: CPU = 13.951 ms, elapsed = 16.181 ms.
Intrinsic tran analysis time:    CPU = 488.788 ms, elapsed = 569.453 ms.
Opening mt file:  /CASNFSHOME2/home/sstatthoudakis/Documents/spectre/Gates/NOR2/nor_validate/corners/corner_pin2/gate_load/nor_ss.mt19
Total time required for tran analysis `transient20': CPU = 509.559 ms, elapsed = 639.12 ms, util. = 79.7%.
Time accumulated: CPU = 11.4433 s, elapsed = 17.3679 s.
Peak resident memory used = 148 Mbytes.


**************************
Alter Group `altergroup20'
**************************
Time for altergroup20: CPU = 18.908 ms, elapsed = 19.227 ms.
Time accumulated: CPU = 11.4623 s, elapsed = 17.3882 s.
Peak resident memory used = 148 Mbytes.


******************************************************
Transient Analysis `transient21': time = (0 s -> 2 ns)
******************************************************

Notice from spectre during IC analysis `timeSweep_cloned_20', during transient analysis `transient21'.
    GminDC = 1 pS is large enough to noticeably affect the DC solution.
        dV(nor6.net16) = 289.812 uV
        Use the `gmin_check' option to eliminate or expand this report.

DC simulation time: CPU = 14.003 ms, elapsed = 15.687 ms.

Notice from spectre during transient analysis `transient21'.
    No outputs were found. Loosening output filter criterion to `allpub'.


Opening the PSFXL file ./nor_ss.raw/transient21.tran.tran ...
Important parameter values:
    start = 0 s
    outputstart = 0 s
    stop = 2 ns
    step = 100 fs
    maxstep = 40 ps
    ic = all
    useprevic = no
    skipdc = no
    reltol = 1e-03
    abstol(V) = 1 uV
    abstol(I) = 1 pA
    temp = 125 C
    tnom = 27 C
    tempeffects = all
    errpreset = moderate
    method = traponly
    lteratio = 3.5
    relref = sigglobal
    cmin = 0 F
    gmin = 1 pS


Output and IC/nodeset summary:
                 probe  2       
                 save   3       (current)
                 save   563     (voltage)

.

Notice from spectre at time = 67.2116 ps during transient analysis `transient21'.
    Found trapezoidal ringing on node VGND:p.

......9......8......7......6......5......4......3......2......1......0
Number of accepted tran steps =             182

Notice from spectre during transient analysis `transient21'.
    Trapezoidal ringing is detected during tran analysis.
        Please use method=trap for better results and performance.


Maximum value achieved for any signal of each quantity: 
V: V(nor1.net16) = 1.05 V
I: I(VGND:p) = 119.6 uA
If your circuit contains signals of the same quantity that are vastly different in size (such as high voltage circuitry combined with low voltage control circuitry), you should consider specifying global option `bin_relref=yes'.

~~~~~~~~~~~~~~~~~~~~~~~~~~~~~~~~~
Post-Transient Simulation Summary
~~~~~~~~~~~~~~~~~~~~~~~~~~~~~~~~~
   -   To further speed up simulation, consider
          add ++aps on command line
~~~~~~~~~~~~~~~~~~~~~~~~~~~~~~~~~


During simulation, the CPU load for active processors is :
         0 (51.1 %)      1 (3.8 %)       2 (100.0 %)     3 (8.2 %)
         4 (2.6 %)       5 (3.3 %)       6 (5.7 %)       7 (3.7 %)
         8 (100.0 %)     9 (3.5 %)      10 (1.0 %)      11 (8.6 %)
        Total: 291.5%
Initial condition solution time: CPU = 14.066 ms, elapsed = 16.17 ms.
Intrinsic tran analysis time:    CPU = 488.023 ms, elapsed = 549.947 ms.
Opening mt file:  /CASNFSHOME2/home/sstatthoudakis/Documents/spectre/Gates/NOR2/nor_validate/corners/corner_pin2/gate_load/nor_ss.mt20
Total time required for tran analysis `transient21': CPU = 509.751 ms, elapsed = 617.129 ms, util. = 82.6%.
Time accumulated: CPU = 11.9862 s, elapsed = 18.089 s.
Peak resident memory used = 148 Mbytes.


**************************
Alter Group `altergroup21'
**************************
Time for altergroup21: CPU = 18.033 ms, elapsed = 19.1588 ms.
Time accumulated: CPU = 12.0044 s, elapsed = 18.1093 s.
Peak resident memory used = 148 Mbytes.


******************************************************
Transient Analysis `transient22': time = (0 s -> 2 ns)
******************************************************

Notice from spectre during IC analysis `timeSweep_cloned_21', during transient analysis `transient22'.
    GminDC = 1 pS is large enough to noticeably affect the DC solution.
        dV(nor5_fanout4.nor11.net16) = 22.2049 mV
        Use the `gmin_check' option to eliminate or expand this report.

DC simulation time: CPU = 20.503 ms, elapsed = 22.2251 ms.

Notice from spectre during transient analysis `transient22'.
    No outputs were found. Loosening output filter criterion to `allpub'.


Opening the PSFXL file ./nor_ss.raw/transient22.tran.tran ...
Important parameter values:
    start = 0 s
    outputstart = 0 s
[...]

......9......8......7....

Notice from spectre at time = 709.811 ps during transient analysis `transient142'.
    Found trapezoidal ringing on node nor6.3:A.
Notice from spectre at time = 713.015 ps during transient analysis `transient142'.
    Found trapezoidal ringing on node nor6.3:A.

......9......8......7......6.....

Notice from spectre at time = 932.798 ps during transient analysis `transient142'.
    Found trapezoidal ringing on node nor8.3:A.
Notice from spectre at time = 936.161 ps during transient analysis `transient142'.
    Found trapezoidal ringing on node nor8.3:A.

......9......8......7......6......5......4......3......2......1......0
Number of accepted tran steps =             298

Notice from spectre during transient analysis `transient142'.
    Trapezoidal ringing is detected during tran analysis.
        Please use method=trap for better results and performance.


Maximum value achieved for any signal of each quantity: 
V: V(nor10_fanout4.nor13.2:Q) = 1.467 V
I: I(VGND:p) = 260.5 uA
If your circuit contains signals of the same quantity that are vastly different in size (such as high voltage circuitry combined with low voltage control circuitry), you should consider specifying global option `bin_relref=yes'.

~~~~~~~~~~~~~~~~~~~~~~~~~~~~~~~~~
Post-Transient Simulation Summary
~~~~~~~~~~~~~~~~~~~~~~~~~~~~~~~~~
   -   To further speed up simulation, consider
          add ++aps on command line
~~~~~~~~~~~~~~~~~~~~~~~~~~~~~~~~~


During simulation, the CPU load for active processors is :
         0 (25.3 %)      1 (50.9 %)      2 (30.7 %)      3 (44.6 %)
         4 (8.6 %)       5 (24.1 %)      6 (3.7 %)       7 (3.3 %)
         8 (100.0 %)     9 (6.1 %)      10 (1.6 %)      11 (3.5 %)
        Total: 302.3%
Initial condition solution time: CPU = 19.982 ms, elapsed = 21.7881 ms.
Intrinsic tran analysis time:    CPU = 810.25 ms, elapsed = 892.144 ms.
Opening mt file:  /CASNFSHOME2/home/sstatthoudakis/Documents/spectre/Gates/NOR2/nor_validate/corners/corner_pin2/gate_load/nor_ss.mt141
Total time required for tran analysis `transient142': CPU = 837.084 ms, elapsed = 959.387 ms, util. = 87.3%.
Time accumulated: CPU = 97.8962 s (1m  37.9s), elapsed = 127.872 s (2m  7.9s).
Peak resident memory used = 159 Mbytes.


***************************
Alter Group `altergroup142'
***************************
Time for altergroup142: CPU = 19.138 ms, elapsed = 19.8619 ms.
Time accumulated: CPU = 97.9155 s (1m  37.9s), elapsed = 127.893 s (2m  7.9s).
Peak resident memory used = 159 Mbytes.


*******************************************************
Transient Analysis `transient143': time = (0 s -> 2 ns)
*******************************************************

Notice from spectre during IC analysis `timeSweep_cloned_142', during transient analysis `transient143'.
    GminDC = 1 pS is large enough to noticeably affect the DC solution.
        dV(nor10.net16) = 7.43117 mV
        Use the `gmin_check' option to eliminate or expand this report.

DC simulation time: CPU = 13.985 ms, elapsed = 15.213 ms.

Notice from spectre during transient analysis `transient143'.
    No outputs were found. Loosening output filter criterion to `allpub'.


Opening the PSFXL file ./nor_ss.raw/transient143.tran.tran ...
Important parameter values:
    start = 0 s
    outputstart = 0 s
    stop = 2 ns
    step = 100 fs
    maxstep = 40 ps
    ic = all
    useprevic = no
    skipdc = no
    reltol = 1e-03
    abstol(V) = 1 uV
    abstol(I) = 1 pA
    temp = 50 C
    tnom = 27 C
    tempeffects = all
    errpreset = moderate
    method = traponly
    lteratio = 3.5
    relref = sigglobal
    cmin = 0 F
    gmin = 1 pS


Output and IC/nodeset summary:
                 probe  2       
                 save   3       (current)
                 save   563     (voltage)

......9......8......7.....

Notice from spectre at time = 729.609 ps during transient analysis `transient143'.
    Found trapezoidal ringing on node nor6.3:A.
Notice from spectre at time = 731.677 ps during transient analysis `transient143'.
    Found trapezoidal ringing on node nor6.3:A.
Notice from spectre at time = 735.814 ps during transient analysis `transient143'.
    Found trapezoidal ringing on node nor6.3:A.

......9......8......7......6......5......4......3......2......1......0
Number of accepted tran steps =             277

Notice from spectre during transient analysis `transient143'.
    Trapezoidal ringing is detected during tran analysis.
        Please use method=trap for better results and performance.


Maximum value achieved for any signal of each quantity: 
V: V(nor10_fanout4.nor13.2:Q) = 1.465 V
I: I(VGND:p) = 245.9 uA
If your circuit contains signals of the same quantity that are vastly different in size (such as high voltage circuitry combined with low voltage control circuitry), you should consider specifying global option `bin_relref=yes'.

~~~~~~~~~~~~~~~~~~~~~~~~~~~~~~~~~
Post-Transient Simulation Summary
~~~~~~~~~~~~~~~~~~~~~~~~~~~~~~~~~
   -   To further speed up simulation, consider
          add ++aps on command line
~~~~~~~~~~~~~~~~~~~~~~~~~~~~~~~~~


During simulation, the CPU load for active processors is :
         0 (25.1 %)      1 (51.3 %)      2 (30.4 %)      3 (44.3 %)
         4 (8.5 %)       5 (24.5 %)      6 (3.6 %)       7 (3.3 %)
         8 (100.0 %)     9 (6.0 %)      10 (1.6 %)      11 (3.5 %)
        Total: 302.3%
Initial condition solution time: CPU = 14.042 ms, elapsed = 15.532 ms.
Intrinsic tran analysis time:    CPU = 751.785 ms, elapsed = 825.931 ms.
Opening mt file:  /CASNFSHOME2/home/sstatthoudakis/Documents/spectre/Gates/NOR2/nor_validate/corners/corner_pin2/gate_load/nor_ss.mt142
Total time required for tran analysis `transient143': CPU = 772.701 ms, elapsed = 888.323 ms, util. = 87%.
Time accumulated: CPU = 98.7055 s (1m  38.7s), elapsed = 128.874 s (2m  8.9s).
Peak resident memory used = 159 Mbytes.


***************************
Alter Group `altergroup143'
***************************
Time for altergroup143: CPU = 23.607 ms, elapsed = 24.2071 ms.
Time accumulated: CPU = 98.7292 s (1m  38.7s), elapsed = 128.9 s (2m  8.9s).
Peak resident memory used = 159 Mbytes.


*******************************************************
Transient Analysis `transient144': time = (0 s -> 2 ns)
*******************************************************

Notice from spectre during IC analysis `timeSweep_cloned_143', during transient analysis `transient144'.
    GminDC = 1 pS is large enough to noticeably affect the DC solution.
        dV(nor6.net16) = 298.093 uV
        Use the `gmin_check' option to eliminate or expand this report.

DC simulation time: CPU = 15.274 ms, elapsed = 16.8459 ms.

Notice from spectre during transient analysis `transient144'.
    No outputs were found. Loosening output filter criterion to `allpub'.


Opening the PSFXL file ./nor_ss.raw/transient144.tran.tran ...
Important parameter values:
    start = 0 s
    outputstart = 0 s
    stop = 2 ns
    step = 100 fs
    maxstep = 40 ps
    ic = all
    useprevic = no
    skipdc = no
    reltol = 1e-03
    abstol(V) = 1 uV
    abstol(I) = 1 pA
    temp = 125 C
    tnom = 27 C
    tempeffects = all
    errpreset = moderate
    method = traponly
    lteratio = 3.5
    relref = sigglobal
    cmin = 0 F
    gmin = 1 pS


Output and IC/nodeset summary:
                 probe  2       
                 save   3       (current)
                 save   563     (voltage)

......9......8......7.....

Notice from spectre at time = 746.221 ps during transient analysis `transient144'.
    Found trapezoidal ringing on node nor6.3:A.
Notice from spectre at time = 749.178 ps during transient analysis `transient144'.
    Found trapezoidal ringing on node nor6.3:A.

......9......8......7......6......

Notice from spectre at time = 981.49 ps during transient analysis `transient144'.
    Found trapezoidal ringing on node nor8.3:A.
Notice from spectre at time = 984.254 ps during transient analysis `transient144'.
    Found trapezoidal ringing on node nor8.3:A.

......9......8......7......6......5......4......3......2......1......0
Number of accepted tran steps =             259

Notice from spectre during transient analysis `transient144'.
    Trapezoidal ringing is detected during tran analysis.
        Please use method=trap for better results and performance.


Maximum value achieved for any signal of each quantity: 
V: V(nor10_fanout4.nor13.2:Q) = 1.461 V
I: I(VGND:p) = 227.5 uA
If your circuit contains signals of the same quantity that are vastly different in size (such as high voltage circuitry combined with low voltage control circuitry), you should consider specifying global option `bin_relref=yes'.

~~~~~~~~~~~~~~~~~~~~~~~~~~~~~~~~~
Post-Transient Simulation Summary
~~~~~~~~~~~~~~~~~~~~~~~~~~~~~~~~~
   -   To further speed up simulation, consider
          add ++aps on command line
~~~~~~~~~~~~~~~~~~~~~~~~~~~~~~~~~


During simulation, the CPU load for active processors is :
         0 (25.0 %)      1 (51.7 %)      2 (30.2 %)      3 (44.0 %)
         4 (8.5 %)       5 (25.0 %)      6 (3.7 %)       7 (3.3 %)
         8 (100.0 %)     9 (6.0 %)      10 (1.6 %)      11 (3.5 %)
        Total: 302.5%
Initial condition solution time: CPU = 15.348 ms, elapsed = 17.1921 ms.
Intrinsic tran analysis time:    CPU = 717.012 ms, elapsed = 795.889 ms.
Opening mt file:  /CASNFSHOME2/home/sstatthoudakis/Documents/spectre/Gates/NOR2/nor_validate/corners/corner_pin2/gate_load/nor_ss.mt143
Total time required for tran analysis `transient144': CPU = 740.037 ms, elapsed = 861.992 ms, util. = 85.9%.
Time accumulated: CPU = 99.4831 s (1m  39.5s), elapsed = 129.848 s (2m  9.8s).
Peak resident memory used = 159 Mbytes.


***************************
Alter Group `altergroup144'
***************************
Time for altergroup144: CPU = 19.471 ms, elapsed = 19.9032 ms.
Time accumulated: CPU = 99.5027 s (1m  39.5s), elapsed = 129.869 s (2m  9.9s).
Peak resident memory used = 159 Mbytes.


*******************************************************
Transient Analysis `transient145': time = (0 s -> 2 ns)
*******************************************************

Notice from spectre during IC analysis `timeSweep_cloned_144', during transient analysis `transient145'.
    GminDC = 1 pS is large enough to noticeably affect the DC solution.
        dV(nor2.net16) = 22.0539 mV
        Use the `gmin_check' option to eliminate or expand this report.

DC simulation time: CPU = 19.469 ms, elapsed = 21.033 ms.

Notice from spectre during transient analysis `transient145'.
    No outputs were found. Loosening output filter criterion to `allpub'.


Opening the PSFXL file ./nor_ss.raw/transient145.tran.tran ...
Important parameter values:
    start = 0 s
    outputstart = 0 s
    stop = 2 ns
    step = 100 fs
    maxstep = 40 ps
    ic = all
    useprevic = no
    skipdc = no
    reltol = 1e-03
    abstol(V) = 1 uV
    abstol(I) = 1 pA
    temp = 0 C
    tnom = 27 C
    tempeffects = all
    errpreset = moderate
    method = traponly
    lteratio = 3.5
    relref = sigglobal
    cmin = 0 F
    gmin = 1 pS


Output and IC/nodeset summary:
                 probe  2       
                 save   3       (current)
                 save   563     (voltage)

......9......8......7......6......5......4......3......2......1......0
Number of accepted tran steps =             295

Maximum value achieved for any signal of each quantity: 
V: V(nor10_fanout4.nor13.2:Q) = 1.477 V
I: I(VGND:p) = 263.8 uA
If your circuit contains signals of the same quantity that are vastly different in size (such as high voltage circuitry combined with low voltage control circuitry), you should consider specifying global option `bin_relref=yes'.

~~~~~~~~~~~~~~~~~~~~~~~~~~~~~~~~~
Post-Transient Simulation Summary
~~~~~~~~~~~~~~~~~~~~~~~~~~~~~~~~~
   -   To further speed up simulation, consider
          add ++aps on command line
~~~~~~~~~~~~~~~~~~~~~~~~~~~~~~~~~


During simulation, the CPU load for active processors is :
         0 (24.8 %)      1 (52.1 %)      2 (30.0 %)      3 (43.6 %)
         4 (8.5 %)       5 (25.5 %)      6 (3.7 %)       7 (3.3 %)
         8 (100.0 %)     9 (6.0 %)      10 (1.6 %)      11 (3.5 %)
        Total: 302.5%
Initial condition solution time: CPU = 19.526 ms, elapsed = 21.4291 ms.
Intrinsic tran analysis time:    CPU = 805.135 ms, elapsed = 863.669 ms.
Opening mt file:  /CASNFSHOME2/home/sstatthoudakis/Documents/spectre/Gates/NOR2/nor_validate/corners/corner_pin2/gate_load/nor_ss.mt144
Total time required for tran analysis `transient145': CPU = 831.855 ms, elapsed = 934.641 ms, util. = 89%.
Time accumulated: CPU = 100.35 s (1m  40.3s), elapsed = 130.907 s (2m  10.9s).
Peak resident memory used = 159 Mbytes.


***************************
Alter Group `altergroup145'
***************************
Time for altergroup145: CPU = 19.151 ms, elapsed = 19.6421 ms.
Time accumulated: CPU = 100.369 s (1m  40.4s), elapsed = 130.928 s (2m  10.9s).
Peak resident memory used = 159 Mbytes.


*******************************************************
Transient Analysis `transient146': time = (0 s -> 2 ns)
*******************************************************

Notice from spectre during IC analysis `timeSweep_cloned_145', during transient analysis `transient146'.
    GminDC = 1 pS is large enough to noticeably affect the DC solution.
        dV(nor10.net16) = 7.41702 mV
        Use the `gmin_check' option to eliminate or expand this report.

DC simulation time: CPU = 13.388 ms, elapsed = 15.4121 ms.

Notice from spectre during transient analysis `transient146'.
    No outputs were found. Loosening output filter criterion to `allpub'.


Opening the PSFXL file ./nor_ss.raw/transient146.tran.tran ...
Important parameter values:
    start = 0 s
    outputstart = 0 s
    stop = 2 ns
    step = 100 fs
    maxstep = 40 ps
    ic = all
    useprevic = no
    skipdc = no
    reltol = 1e-03
    abstol(V) = 1 uV
    abstol(I) = 1 pA
    temp = 50 C
    tnom = 27 C
    tempeffects = all
    errpreset = moderate
    method = traponly
    lteratio = 3.5
    relref = sigglobal
    cmin = 0 F
    gmin = 1 pS


Output and IC/nodeset summary:
                 probe  2       
                 save   3       (current)
                 save   563     (voltage)

......9......8......7......6......5......4......3......2......1......0
Number of accepted tran steps =             278

Maximum value achieved for any signal of each quantity: 
V: V(nor10_fanout4.nor13.2:Q) = 1.475 V
I: I(VGND:p) = 249.6 uA
If your circuit contains signals of the same quantity that are vastly different in size (such as high voltage circuitry combined with low voltage control circuitry), you should consider specifying global option `bin_relref=yes'.

~~~~~~~~~~~~~~~~~~~~~~~~~~~~~~~~~
Post-Transient Simulation Summary
~~~~~~~~~~~~~~~~~~~~~~~~~~~~~~~~~
   -   To further speed up simulation, consider
          add ++aps on command line
~~~~~~~~~~~~~~~~~~~~~~~~~~~~~~~~~


During simulation, the CPU load for active processors is :
         0 (24.6 %)      1 (52.4 %)      2 (30.4 %)      3 (43.3 %)
         4 (8.4 %)       5 (25.3 %)      6 (3.6 %)       7 (3.3 %)
         8 (100.0 %)     9 (6.0 %)      10 (1.6 %)      11 (3.5 %)
        Total: 302.4%
Initial condition solution time: CPU = 13.446 ms, elapsed = 15.8379 ms.
Intrinsic tran analysis time:    CPU = 761.388 ms, elapsed = 845.307 ms.
Opening mt file:  /CASNFSHOME2/home/sstatthoudakis/Documents/spectre/Gates/NOR2/nor_validate/corners/corner_pin2/gate_load/nor_ss.mt145
Total time required for tran analysis `transient146': CPU = 784.356 ms, elapsed = 915.038 ms, util. = 85.7%.
Time accumulated: CPU = 101.184 s (1m  41.2s), elapsed = 131.99 s (2m  12.0s).
Peak resident memory used = 159 Mbytes.


***************************
Alter Group `altergroup146'
***************************
Time for altergroup146: CPU = 22.899 ms, elapsed = 23.5851 ms.
Time accumulated: CPU = 101.208 s (1m  41.2s), elapsed = 132.017 s (2m  12.0s).
Peak resident memory used = 159 Mbytes.


*******************************************************
Transient Analysis `transient147': time = (0 s -> 2 ns)
*******************************************************

Notice from spectre during IC analysis `timeSweep_cloned_146', during transient analysis `transient147'.
    GminDC = 1 pS is large enough to noticeably affect the DC solution.
        dV(nor6.net16) = 298.002 uV
        Use the `gmin_check' option to eliminate or expand this report.

DC simulation time: CPU = 12.607 ms, elapsed = 14.348 ms.

Notice from spectre during transient analysis `transient147'.
    No outputs were found. Loosening output filter criterion to `allpub'.


Opening the PSFXL file ./nor_ss.raw/transient147.tran.tran ...
Important parameter values:
    start = 0 s
    outputstart = 0 s
    stop = 2 ns
    step = 100 fs
    maxstep = 40 ps
    ic = all
    useprevic = no
    skipdc = no
    reltol = 1e-03
    abstol(V) = 1 uV
    abstol(I) = 1 pA
    temp = 125 C
    tnom = 27 C
    tempeffects = all
    errpreset = moderate
    method = traponly
    lteratio = 3.5
    relref = sigglobal
    cmin = 0 F
    gmin = 1 pS


Output and IC/nodeset summary:
                 probe  2       
                 save   3       (current)
                 save   563     (voltage)

......9......8......7.....

Notice from spectre at time = 739.613 ps during transient analysis `transient147'.
    Found trapezoidal ringing on node nor6.3:A.
Notice from spectre at time = 741.758 ps during transient analysis `transient147'.
    Found trapezoidal ringing on node nor6.3:A.
Notice from spectre at time = 746.047 ps during transient analysis `transient147'.
    Found trapezoidal ringing on node nor6.3:A.

......9......8......7......6......5......4......3......2......1......0
Number of accepted tran steps =             255

Notice from spectre during transient analysis `transient147'.
    Trapezoidal ringing is detected during tran analysis.
        Please use method=trap for better results and performance.


Maximum value achieved for any signal of each quantity: 
V: V(nor10_fanout4.nor13.2:Q) = 1.471 V
I: I(VGND:p) = 231.4 uA
If your circuit contains signals of the same quantity that are vastly different in size (such as high voltage circuitry combined with low voltage control circuitry), you should consider specifying global option `bin_relref=yes'.

~~~~~~~~~~~~~~~~~~~~~~~~~~~~~~~~~
Post-Transient Simulation Summary
~~~~~~~~~~~~~~~~~~~~~~~~~~~~~~~~~
   -   To further speed up simulation, consider
          add ++aps on command line
~~~~~~~~~~~~~~~~~~~~~~~~~~~~~~~~~


During simulation, the CPU load for active processors is :
         0 (24.5 %)      1 (52.8 %)      2 (30.8 %)      3 (43.0 %)
         4 (8.4 %)       5 (25.1 %)      6 (3.6 %)       7 (3.3 %)
         8 (100.0 %)     9 (5.9 %)      10 (1.6 %)      11 (3.5 %)
        Total: 302.3%
Initial condition solution time: CPU = 12.659 ms, elapsed = 14.8001 ms.
Intrinsic tran analysis time:    CPU = 728.797 ms, elapsed = 819.298 ms.
Opening mt file:  /CASNFSHOME2/home/sstatthoudakis/Documents/spectre/Gates/NOR2/nor_validate/corners/corner_pin2/gate_load/nor_ss.mt146
Total time required for tran analysis `transient147': CPU = 748.482 ms, elapsed = 888.333 ms, util. = 84.3%.
Time accumulated: CPU = 101.98 s (1m  42.0s), elapsed = 133.004 s (2m  13.0s).
Peak resident memory used = 159 Mbytes.

Licensing Information:
Lic Summary:
[14:43:50.003939] Cdslmd servers:5280@10.64.82.10
[14:43:50.003995] Feature usage summary:
[14:43:50.003995] Virtuoso_Multi_mode_Simulation


Aggregate audit (2:43:50 PM, Wed Oct 29, 2025):
Time used: CPU = 102 s (1m  42.0s), elapsed = 133 s (2m  13.1s), util. = 76.6%.
Time spent in licensing: elapsed = 176 ms.
Peak memory used = 160 Mbytes.
Simulation started at: 2:41:37 PM, Wed Oct 29, 2025, ended at: 2:43:50 PM, Wed Oct 29, 2025, with elapsed time (wall clock): 133 s (2m  13.1s).
spectre completes with 0 errors, 12 warnings, and 527 notices.
