
Spectre (R) Circuit Simulator
Version 23.1.0.242.isr1 64bit -- 7 Sep 2023
Copyright (C) 1989-2023 Cadence Design Systems, Inc. All rights reserved
        worldwide. Cadence and Spectre are registered trademarks of Cadence
        Design Systems, Inc. All others are the property of their respective
        holders.

Includes RSA BSAFE(R) Cryptographic or Security Protocol Software from RSA
        Security, Inc.

User: sstatthoudakis   Host: torreyridge   HostID: 7F0100   PID: 29654
Memory  available: 104.5391 GB  physical: 135.0278 GB
Linux   : CentOS Linux release 7 (Core)
CPU Type: Intel(R) Xeon(R) Silver 4114 CPU @ 2.20GHz
All processors running at 2194.8 MHz
        Socket: Processors
        0:       0
        2:       1
        4:       2
        6:       3
        8:       4
        10:      5
        12:      6
        14:      7
        16:      8
        18:      9
        20:     10
        22:     11
        
System load averages (1min, 5min, 15min) : 26.9 %, 25.8 %, 23.1 %
This is a virtual machine


Simulating `nor_ss.scs' on torreyridge at 2:36:49 PM, Wed Oct 29, 2025 (process
        id: 29654).
Current working directory:
        /CASNFSHOME2/home/sstatthoudakis/Documents/spectre/Gates/NOR2/nor_validate/corners/corner_pin1/wire_load
Command line:
     \
        /CASNFSHOME/home/edatools/cadence/2023-24/RHELx86/SPECTRE_23.10.242/tools.lnx86/bin/spectre
        \
        -64 nor_ss.scs
Licensing Information:
[14:36:49.231897] Configured Lic search path (22.01-s002): 5280@10.64.82.10

Licensing Information:
[14:36:49.351059] Periodic Lic check successful

Reading file: 
        /CASNFSHOME2/home/sstatthoudakis/Documents/spectre/Gates/NOR2/nor_validate/corners/corner_pin1/wire_load/nor_ss.scs
Reading file: 
        /CASNFSHOME/home/edatools/cadence/2023-24/RHELx86/SPECTRE_23.10.242/tools.lnx86/spectre/etc/configs/spectre.cfg
Reading file: 
        /CASNFSHOME/home/tsaikaterini/IHP/IHP_Generation_files/130ng/ihp013ng_include_all_slow.scs
Reading file: 
        /CASNFSHOME/home/tsaikaterini/IHP/IHP_Generation_files/130ng/SG13S_618_rev1.12.15/tech/SG13_HBT/VBIC/spectre/SG13_cornerBIP.scs
Reading file: 
        /CASNFSHOME/home/tsaikaterini/IHP/IHP_Generation_files/130ng/SG13S_618_rev1.12.15/tech/SG13_HBT/VBIC/spectre/SG13_hbt_mm.scs
Reading file: 
        /CASNFSHOME/home/tsaikaterini/IHP/IHP_Generation_files/130ng/SG13S_618_rev1.12.15/tech/SG13_HBT/VBIC/spectre/SG13_hbt.lib
Reading file: 
        /CASNFSHOME/home/tsaikaterini/IHP/IHP_Generation_files/130ng/SG13S_618_rev1.12.15/tech/SG13_HBT/VBIC/spectre/SG13_hbt_stat.scs
Reading file: 
        /CASNFSHOME/home/tsaikaterini/IHP/IHP_Generation_files/130ng/SG13S_618_rev1.12.15/tech/SG13_MOS/library/spectre/cornerMOSlv_psp.scs
Reading file: 
        /CASNFSHOME/home/tsaikaterini/IHP/IHP_Generation_files/130ng/SG13S_618_rev1.12.15/tech/SG13_MOS/library/spectre/sg13_moslv_psp_stat.scs
Reading file: 
        /CASNFSHOME/home/tsaikaterini/IHP/IHP_Generation_files/130ng/SG13S_618_rev1.12.15/tech/SG13_MOS/library/spectre/sg13_moslv_psp_mod.lib
Reading file: 
        /CASNFSHOME/home/tsaikaterini/IHP/IHP_Generation_files/130ng/SG13S_618_rev1.12.15/tech/SG13_MOS/library/spectre/sg13_moslv_psp_parm.scs
Reading file: 
        /CASNFSHOME/home/tsaikaterini/IHP/IHP_Generation_files/130ng/SG13S_618_rev1.12.15/tech/SG13_MOS/library/spectre/cornerMOShv_psp.scs
Reading file: 
        /CASNFSHOME/home/tsaikaterini/IHP/IHP_Generation_files/130ng/SG13S_618_rev1.12.15/tech/SG13_MOS/library/spectre/sg13_moshv_psp_stat.scs
Reading file: 
        /CASNFSHOME/home/tsaikaterini/IHP/IHP_Generation_files/130ng/SG13S_618_rev1.12.15/tech/SG13_MOS/library/spectre/sg13_moshv_psp_mod.lib
Reading file: 
        /CASNFSHOME/home/tsaikaterini/IHP/IHP_Generation_files/130ng/SG13S_618_rev1.12.15/tech/SG13_MOS/library/spectre/sg13_moshv_psp_parm.scs

Warning from spectre in `nmoselt', during circuit read-in.
    WARNING (SFE-2296):
        "/CASNFSHOME/home/tsaikaterini/IHP/IHP_Generation_files/130ng/SG13S_618_rev1.12.15/tech/SG13_MOS/library/spectre/sg13_moshv_psp_mod.lib"
        79: The inline subckt definition `nmoselt' does not contain any inline
        components. The `inline' qualifier will therefore be ignored.

Reading file: 
        /CASNFSHOME/home/tsaikaterini/IHP/IHP_Generation_files/130ng/SG13S_618_rev1.12.15/tech/SG13_MOS/library/spectre/sg13_svaricaphv_mosvar_mod.lib
Reading file: 
        /CASNFSHOME/home/tsaikaterini/IHP/IHP_Generation_files/130ng/SG13S_618_rev1.12.15/tech/SG13_PASSIVES/spectre/SG13_cornerRES.scs
Reading file: 
        /CASNFSHOME/home/tsaikaterini/IHP/IHP_Generation_files/130ng/SG13S_618_rev1.12.15/tech/SG13_PASSIVES/spectre/SG13_res_mm.scs
Reading file: 
        /CASNFSHOME/home/tsaikaterini/IHP/IHP_Generation_files/130ng/SG13S_618_rev1.12.15/tech/SG13_PASSIVES/spectre/SG13_res_stat.scs
Reading file: 
        /CASNFSHOME/home/tsaikaterini/IHP/IHP_Generation_files/130ng/SG13S_618_rev1.12.15/tech/SG13_PASSIVES/spectre/SG13_res.lib
Reading file: 
        /CASNFSHOME/home/tsaikaterini/IHP/IHP_Generation_files/130ng/SG13S_618_rev1.12.15/tech/SG13_PASSIVES/spectre/SG13_cornerCAP.scs
Reading file: 
        /CASNFSHOME/home/tsaikaterini/IHP/IHP_Generation_files/130ng/SG13S_618_rev1.12.15/tech/SG13_PASSIVES/spectre/SG13_cap_mm.scs
Reading file: 
        /CASNFSHOME/home/tsaikaterini/IHP/IHP_Generation_files/130ng/SG13S_618_rev1.12.15/tech/SG13_PASSIVES/spectre/SG13_cap_stat.scs
Reading file: 
        /CASNFSHOME/home/tsaikaterini/IHP/IHP_Generation_files/130ng/SG13S_618_rev1.12.15/tech/SG13_PASSIVES/spectre/SG13_cap.lib
Reading file: 
        /CASNFSHOME/home/tsaikaterini/IHP/IHP_Generation_files/130ng/SG13S_618_rev1.12.15/tech/SG13_PASSIVES/spectre/Ind_unit_4PI
Reading file: 
        /CASNFSHOME/home/tsaikaterini/IHP/IHP_Generation_files/130ng/SG13S_618_rev1.12.15/tech/SG13_PASSIVES/spectre/Parameters_define_4PI
Reading file: 
        /CASNFSHOME/home/tsaikaterini/IHP/IHP_Generation_files/130ng/SG13S_618_rev1.12.15/tech/SG13_PASSIVES/spectre/sg13s_dschottky_nbl1_mod.lib
Reading file: 
        /CASNFSHOME/home/tsaikaterini/IHP/IHP_Generation_files/130ng/SG13S_618_rev1.12.15/tech/SG13_PASSIVES/spectre/SG13_diodes.lib
Reading file: 
        /CASNFSHOME/home/tsaikaterini/IHP/IHP_Generation_files/130ng/SG13S_618_rev1.12.15/tech/SG13_MOS/library/spectre/CheckMOSstat.scs
Reading file: 
        /CASNFSHOME/home/tsaikaterini/IHP/IHP_Generation_files/130ng/SG13S_618_rev1.12.15/tech/SG13_MOS/library/spectre/CheckMOSdyn.scs
Reading file: 
        /CASNFSHOME/home/tsaikaterini/IHP/IHP_Generation_files/130ng/SG13S_618_rev1.12.15/tech/SG13_ESD/spectre/SG13_esd.lib
Reading file: 
        /CASNFSHOME/home/tsaikaterini/IHP/IHP_Generation_files/130ng/SG13S_618_rev1.12.15/tech/SG13_PASSIVES/spectre/SG13_cornerTSV.scs
Reading file: 
        /CASNFSHOME/home/tsaikaterini/IHP/IHP_Generation_files/130ng/SG13S_618_rev1.12.15/tech/SG13_PASSIVES/spectre/SG13_paramsTSV.scs
Reading file: 
        /CASNFSHOME/home/tsaikaterini/IHP/IHP_Generation_files/130ng/SG13S_618_rev1.12.15/tech/SG13_PASSIVES/spectre/SG13_tsv.lib
Reading file: 
        /CASNFSHOME/home/tsaikaterini/IHP/IHP_Generation_files/130ng/ixc013ng_stdcell_rc.scs
Time for NDB Parsing: CPU = 585.06 ms, elapsed = 911.748 ms.
Time accumulated: CPU = 691.371 ms, elapsed = 911.751 ms.
Peak resident memory used = 114 Mbytes.


Warning from spectre in `NO2JIX0':`nor1', during hierarchy flattening.
    WARNING (SFE-103):
        "/CASNFSHOME/home/tsaikaterini/IHP/IHP_Generation_files/130ng/ixc013ng_stdcell_rc.scs"
        28325: Subcircuit parameter `nrd', defined for subcircuit
        `sg13_lv_pmos', has been ignored because it is invalid. Check the
        parameters that are defined for the instantiated subcircuit and rerun
        the simulation.
    WARNING (SFE-103):
        "/CASNFSHOME/home/tsaikaterini/IHP/IHP_Generation_files/130ng/ixc013ng_stdcell_rc.scs"
        28325: Subcircuit parameter `nrs', defined for subcircuit
        `sg13_lv_pmos', has been ignored because it is invalid. Check the
        parameters that are defined for the instantiated subcircuit and rerun
        the simulation.
    WARNING (SFE-103):
        "/CASNFSHOME/home/tsaikaterini/IHP/IHP_Generation_files/130ng/ixc013ng_stdcell_rc.scs"
        28328: Subcircuit parameter `nrd', defined for subcircuit
        `sg13_lv_pmos', has been ignored because it is invalid. Check the
        parameters that are defined for the instantiated subcircuit and rerun
        the simulation.
    WARNING (SFE-103):
        "/CASNFSHOME/home/tsaikaterini/IHP/IHP_Generation_files/130ng/ixc013ng_stdcell_rc.scs"
        28328: Subcircuit parameter `nrs', defined for subcircuit
        `sg13_lv_pmos', has been ignored because it is invalid. Check the
        parameters that are defined for the instantiated subcircuit and rerun
        the simulation.
    WARNING (SFE-103):
        "/CASNFSHOME/home/tsaikaterini/IHP/IHP_Generation_files/130ng/ixc013ng_stdcell_rc.scs"
        28330: Subcircuit parameter `nrd', defined for subcircuit
        `sg13_lv_nmos', has been ignored because it is invalid. Check the
        parameters that are defined for the instantiated subcircuit and rerun
        the simulation.
        Further occurrences of this warning will be suppressed.

Time for Elaboration: CPU = 36.772 ms, elapsed = 40.6051 ms.
Time accumulated: CPU = 728.375 ms, elapsed = 954.444 ms.
Peak resident memory used = 122 Mbytes.


Notice from spectre in `NO2JIX0':`nor1', during hierarchy flattening.
    nor1.c6: Terminals are connected together (to node `VSS').
Notice from spectre in `NO2JIX0':`nor2', during hierarchy flattening.
    nor2.c6: Terminals are connected together (to node `VSS').
Notice from spectre in `NO2JIX0':`nor3', during hierarchy flattening.
    nor3.c6: Terminals are connected together (to node `VSS').
Notice from spectre in `NO2JIX0':`nor4', during hierarchy flattening.
    nor4.c6: Terminals are connected together (to node `VSS').
Notice from spectre in `NO2JIX0':`nor5', during hierarchy flattening.
    nor5.c6: Terminals are connected together (to node `VSS').
        Further occurrences of this notice will be suppressed (except in log
        file).

Time for EDB Visiting: CPU = 34.133 ms, elapsed = 38.655 ms.
Time accumulated: CPU = 762.74 ms, elapsed = 994.659 ms.
Peak resident memory used = 129 Mbytes.


Warning from spectre during initial setup.
    WARNING (SPECTRE-17237): Assert violations will be written to the sqldb
        file because the 'checklimitdest' option has not been specified.
    WARNING (SPECTRE-17607): Assert `check_sg13s_lv_nmosHV_vgs' is ignored
        because it contains an expression which is not supported by native
        evaluator. 
    WARNING (SPECTRE-17607): Assert `check_sg13s_lv_nmosHV_vgd' is ignored
        because it contains an expression which is not supported by native
        evaluator. 
    WARNING (SPECTRE-17607): Assert `check_sg13s_lv_nmosHV_vds' is ignored
        because it contains an expression which is not supported by native
        evaluator. 
    WARNING (SPECTRE-17607): Assert `check_sg13s_lv_nmosHV_vdb' is ignored
        because it contains an expression which is not supported by native
        evaluator. 
    WARNING (SPECTRE-17607): Assert `check_sg13s_lv_nmosHV_vgb' is ignored
        because it contains an expression which is not supported by native
        evaluator. 
        Further occurrences of this warning will be suppressed.
Notice from spectre during topology check.
    Only one connection to the following 11 nodes:
        X_in1_wire.Capacitance*M
        X_out_wire.Capacitance*M
        X_out2_wire.Capacitance*M
        X_out3_wire.Capacitance*M
        X_out4_wire.Capacitance*M
        Further occurrences of this notice will be suppressed (except in log
        file).
    No DC path from node `X_in1_wire.Capacitance*M' to ground, Gmin installed
        to provide path.
    No DC path from node `X_out_wire.Capacitance*M' to ground, Gmin installed
        to provide path.
    No DC path from node `X_out2_wire.Capacitance*M' to ground, Gmin installed
        to provide path.
    No DC path from node `X_out3_wire.Capacitance*M' to ground, Gmin installed
        to provide path.
    No DC path from node `X_out4_wire.Capacitance*M' to ground, Gmin installed
        to provide path.
        Further occurrences of this notice will be suppressed (except in log
        file).


Global user options:
               temp = 0

Scoped user options:

Circuit inventory:
              nodes 165
          capacitor 181   
          pspnqs103 40    
           resistor 131   
            vsource 3     

Analysis and control statement inventory:
         altergroup 146   
               tran 147   

Output statements:
             .probe 0     
           .measure 3     
               save 0     

Design checks inventory:
          paramtest 160   
             assert 40    


Notice from spectre.
    12 notices suppressed.
    82 warnings suppressed.

Time for parsing: CPU = 18.769 ms, elapsed = 471.074 ms.
Time accumulated: CPU = 781.729 ms, elapsed = 1.46806 s.
Peak resident memory used = 132 Mbytes.

~~~~~~~~~~~~~~~~~~~~~~
Pre-Simulation Summary
~~~~~~~~~~~~~~~~~~~~~~
~~~~~~~~~~~~~~~~~~~~~~

Notice from spectre during transient analysis `transient1'.
    No checklimit analysis defined for asserts. A default checklimit analysis
        'SpectreChecklimitAnal' has been created with all asserts enabled.


*****************************************************
Transient Analysis `transient1': time = (0 s -> 2 ns)
*****************************************************
DC simulation time: CPU = 4.799 ms, elapsed = 4.80103 ms.

Notice from spectre during transient analysis `transient1'.
    No outputs were found. Loosening output filter criterion to `allpub'.


Opening the PSFXL file ./nor_ss.raw/transient1.tran.tran ...
Important parameter values:
    start = 0 s
    outputstart = 0 s
    stop = 2 ns
    step = 100 fs
    maxstep = 40 ps
    ic = all
    useprevic = no
    skipdc = no
    reltol = 1e-03
    abstol(V) = 1 uV
    abstol(I) = 1 pA
    temp = 0 C
    tnom = 27 C
    tempeffects = all
    errpreset = moderate
    method = traponly
    lteratio = 3.5
    relref = sigglobal
    cmin = 0 F
    gmin = 1 pS


Output and IC/nodeset summary:
                 probe  2       
                 save   3       (current)
                 save   165     (voltage)

......9......8......7......6......5......4......3......2......1......0
Number of accepted tran steps =             158

Maximum value achieved for any signal of each quantity: 
V: V(nor7.1:Q) = 1.053 V
I: I(VGND:p) = 41.26 uA
If your circuit contains signals of the same quantity that are vastly different
        in size (such as high voltage circuitry combined with low voltage
        control circuitry), you should consider specifying global option
        `bin_relref=yes'.

~~~~~~~~~~~~~~~~~~~~~~~~~~~~~~~~~
Post-Transient Simulation Summary
~~~~~~~~~~~~~~~~~~~~~~~~~~~~~~~~~
   -   To further speed up simulation, consider
          add ++aps on command line
~~~~~~~~~~~~~~~~~~~~~~~~~~~~~~~~~


During simulation, the CPU load for active processors is :
         0 (100.0 %)     1 (18.2 %)      2 (6.7 %)       3 (10.3 %)
         4 (3.0 %)       5 (2.5 %)       6 (100.0 %)     7 (4.8 %)
         8 (40.6 %)      9 (1.8 %)      11 (1.2 %)      
        Total: 289.9%
Initial condition solution time: CPU = 4.905 ms, elapsed = 5.50103 ms.
Intrinsic tran analysis time:    CPU = 125.74 ms, elapsed = 172.941 ms.
Opening measure  file: 
        /CASNFSHOME2/home/sstatthoudakis/Documents/spectre/Gates/NOR2/nor_validate/corners/corner_pin1/wire_load/nor_ss.measure
Opening mt file: 
        /CASNFSHOME2/home/sstatthoudakis/Documents/spectre/Gates/NOR2/nor_validate/corners/corner_pin1/wire_load/nor_ss.mt0
Total time required for tran analysis `transient1': CPU = 198.7 ms, elapsed =
        355.967 ms, util. = 55.8%.
Time accumulated: CPU = 991.334 ms, elapsed = 1.85977 s.
Peak resident memory used = 141 Mbytes.


*************************
Alter Group `altergroup1'
*************************
Time for altergroup1: CPU = 7.61 ms, elapsed = 7.96318 ms.
Time accumulated: CPU = 999.046 ms, elapsed = 1.8688 s.
Peak resident memory used = 141 Mbytes.


*****************************************************
Transient Analysis `transient2': time = (0 s -> 2 ns)
*****************************************************
DC simulation time: CPU = 6.664 ms, elapsed = 6.66618 ms.

Notice from spectre during transient analysis `transient2'.
    No outputs were found. Loosening output filter criterion to `allpub'.


Opening the PSFXL file ./nor_ss.raw/transient2.tran.tran ...
Important parameter values:
    start = 0 s
    outputstart = 0 s
    stop = 2 ns
    step = 100 fs
    maxstep = 40 ps
    ic = all
    useprevic = no
    skipdc = no
    reltol = 1e-03
    abstol(V) = 1 uV
    abstol(I) = 1 pA
    temp = 50 C
    tnom = 27 C
    tempeffects = all
    errpreset = moderate
    method = traponly
    lteratio = 3.5
    relref = sigglobal
    cmin = 0 F
    gmin = 1 pS


Output and IC/nodeset summary:
                 probe  2       
                 save   3       (current)
                 save   165     (voltage)

......9......8......7......6......5......4......3......2......1......0
Number of accepted tran steps =             157

Maximum value achieved for any signal of each quantity: 
V: V(nor8.1:Q) = 1.043 V
I: I(VGND:p) = 40.25 uA
If your circuit contains signals of the same quantity that are vastly different
        in size (such as high voltage circuitry combined with low voltage
        control circuitry), you should consider specifying global option
        `bin_relref=yes'.

~~~~~~~~~~~~~~~~~~~~~~~~~~~~~~~~~
Post-Transient Simulation Summary
~~~~~~~~~~~~~~~~~~~~~~~~~~~~~~~~~
   -   To further speed up simulation, consider
          add ++aps on command line
~~~~~~~~~~~~~~~~~~~~~~~~~~~~~~~~~


During simulation, the CPU load for active processors is :
         0 (100.0 %)     1 (14.6 %)      2 (7.4 %)       3 (18.0 %)
         4 (2.4 %)       5 (6.4 %)       6 (100.0 %)     7 (3.9 %)
         8 (33.2 %)      9 (1.5 %)      11 (1.5 %)      
        Total: 289.2%
Initial condition solution time: CPU = 6.786 ms, elapsed = 7.15709 ms.
Intrinsic tran analysis time:    CPU = 132.121 ms, elapsed = 190.041 ms.
Opening mt file: 
        /CASNFSHOME2/home/sstatthoudakis/Documents/spectre/Gates/NOR2/nor_validate/corners/corner_pin1/wire_load/nor_ss.mt1
Total time required for tran analysis `transient2': CPU = 143.635 ms, elapsed =
        212.8 ms, util. = 67.5%.
Time accumulated: CPU = 1.14754 s, elapsed = 2.11812 s.
Peak resident memory used = 141 Mbytes.


*************************
Alter Group `altergroup2'
*************************
Time for altergroup2: CPU = 12.078 ms, elapsed = 12.6638 ms.
Time accumulated: CPU = 1.15975 s, elapsed = 2.13222 s.
Peak resident memory used = 141 Mbytes.


*****************************************************
Transient Analysis `transient3': time = (0 s -> 2 ns)
*****************************************************
DC simulation time: CPU = 4.491 ms, elapsed = 4.493 ms.

Notice from spectre during transient analysis `transient3'.
    No outputs were found. Loosening output filter criterion to `allpub'.


Opening the PSFXL file ./nor_ss.raw/transient3.tran.tran ...
Important parameter values:
    start = 0 s
    outputstart = 0 s
    stop = 2 ns
    step = 100 fs
    maxstep = 40 ps
    ic = all
    useprevic = no
    skipdc = no
    reltol = 1e-03
    abstol(V) = 1 uV
    abstol(I) = 1 pA
    temp = 125 C
    tnom = 27 C
    tempeffects = all
    errpreset = moderate
    method = traponly
    lteratio = 3.5
    relref = sigglobal
    cmin = 0 F
    gmin = 1 pS


Output and IC/nodeset summary:
                 probe  2       
                 save   3       (current)
                 save   165     (voltage)

......9......8......7......6......5......4......3......2......1......0
Number of accepted tran steps =             162

Maximum value achieved for any signal of each quantity: 
V: V(nor4.1:Q) = 1.032 V
I: I(VGND:p) = 39.3 uA
If your circuit contains signals of the same quantity that are vastly different
        in size (such as high voltage circuitry combined with low voltage
        control circuitry), you should consider specifying global option
        `bin_relref=yes'.

~~~~~~~~~~~~~~~~~~~~~~~~~~~~~~~~~
Post-Transient Simulation Summary
~~~~~~~~~~~~~~~~~~~~~~~~~~~~~~~~~
   -   To further speed up simulation, consider
          add ++aps on command line
~~~~~~~~~~~~~~~~~~~~~~~~~~~~~~~~~


During simulation, the CPU load for active processors is :
         0 (100.0 %)     1 (12.9 %)      2 (10.8 %)      3 (18.5 %)
         4 (2.2 %)       5 (5.7 %)       6 (100.0 %)     7 (3.9 %)
         8 (29.7 %)      9 (1.3 %)      11 (1.3 %)      
        Total: 286.8%
Initial condition solution time: CPU = 4.562 ms, elapsed = 5.24402 ms.
Intrinsic tran analysis time:    CPU = 121.055 ms, elapsed = 189.538 ms.
Opening mt file: 
        /CASNFSHOME2/home/sstatthoudakis/Documents/spectre/Gates/NOR2/nor_validate/corners/corner_pin1/wire_load/nor_ss.mt2
Total time required for tran analysis `transient3': CPU = 128.907 ms, elapsed =
        213.077 ms, util. = 60.5%.
Time accumulated: CPU = 1.29353 s, elapsed = 2.38654 s.
Peak resident memory used = 141 Mbytes.


*************************
Alter Group `altergroup3'
*************************
Time for altergroup3: CPU = 6.522 ms, elapsed = 6.87408 ms.
Time accumulated: CPU = 1.30015 s, elapsed = 2.39438 s.
Peak resident memory used = 141 Mbytes.


*****************************************************
Transient Analysis `transient4': time = (0 s -> 2 ns)
*****************************************************
DC simulation time: CPU = 4.287 ms, elapsed = 4.2882 ms.

Notice from spectre during transient analysis `transient4'.
    No outputs were found. Loosening output filter criterion to `allpub'.


Opening the PSFXL file ./nor_ss.raw/transient4.tran.tran ...
Important parameter values:
    start = 0 s
    outputstart = 0 s
    stop = 2 ns
    step = 100 fs
    maxstep = 40 ps
    ic = all
    useprevic = no
    skipdc = no
    reltol = 1e-03
    abstol(V) = 1 uV
    abstol(I) = 1 pA
    temp = 0 C
    tnom = 27 C
    tempeffects = all
    errpreset = moderate
    method = traponly
    lteratio = 3.5
    relref = sigglobal
    cmin = 0 F
    gmin = 1 pS


Output and IC/nodeset summary:
                 probe  2       
                 save   3       (current)
                 save   165     (voltage)

......9......8......7......6......5......4......3......2......1......0
Number of accepted tran steps =             159

Maximum value achieved for any signal of each quantity: 
V: V(nor7.1:Q) = 1.063 V
I: I(VGND:p) = 42.68 uA
If your circuit contains signals of the same quantity that are vastly different
        in size (such as high voltage circuitry combined with low voltage
        control circuitry), you should consider specifying global option
        `bin_relref=yes'.

~~~~~~~~~~~~~~~~~~~~~~~~~~~~~~~~~
Post-Transient Simulation Summary
~~~~~~~~~~~~~~~~~~~~~~~~~~~~~~~~~
   -   To further speed up simulation, consider
          add ++aps on command line
~~~~~~~~~~~~~~~~~~~~~~~~~~~~~~~~~


During simulation, the CPU load for active processors is :
         0 (100.0 %)     1 (11.4 %)      2 (9.6 %)       3 (23.6 %)
         4 (1.9 %)       5 (5.4 %)       6 (100.0 %)     7 (3.4 %)
         8 (26.7 %)      9 (1.5 %)      11 (1.1 %)      
        Total: 285.1%
Initial condition solution time: CPU = 4.352 ms, elapsed = 4.84705 ms.
Intrinsic tran analysis time:    CPU = 160.804 ms, elapsed = 229.913 ms.
Opening mt file: 
        /CASNFSHOME2/home/sstatthoudakis/Documents/spectre/Gates/NOR2/nor_validate/corners/corner_pin1/wire_load/nor_ss.mt3
Total time required for tran analysis `transient4': CPU = 168.473 ms, elapsed =
        253.001 ms, util. = 66.6%.
Time accumulated: CPU = 1.47368 s, elapsed = 2.68578 s.
Peak resident memory used = 141 Mbytes.


*************************
Alter Group `altergroup4'
*************************
Time for altergroup4: CPU = 6.908 ms, elapsed = 7.50709 ms.
Time accumulated: CPU = 1.4807 s, elapsed = 2.69472 s.
Peak resident memory used = 141 Mbytes.


*****************************************************
Transient Analysis `transient5': time = (0 s -> 2 ns)
*****************************************************
DC simulation time: CPU = 4.46 ms, elapsed = 4.46081 ms.

Notice from spectre during transient analysis `transient5'.
    No outputs were found. Loosening output filter criterion to `allpub'.


Opening the PSFXL file ./nor_ss.raw/transient5.tran.tran ...
Important parameter values:
    start = 0 s
    outputstart = 0 s
    stop = 2 ns
    step = 100 fs
    maxstep = 40 ps
    ic = all
    useprevic = no
    skipdc = no
    reltol = 1e-03
    abstol(V) = 1 uV
    abstol(I) = 1 pA
    temp = 50 C
    tnom = 27 C
    tempeffects = all
    errpreset = moderate
    method = traponly
    lteratio = 3.5
    relref = sigglobal
    cmin = 0 F
    gmin = 1 pS


Output and IC/nodeset summary:
                 probe  2       
                 save   3       (current)
                 save   165     (voltage)

......9......8......7......6......5......4......3......2......1......0
Number of accepted tran steps =             157

Maximum value achieved for any signal of each quantity: 
V: V(nor4.1:Q) = 1.053 V
I: I(VGND:p) = 41.47 uA
If your circuit contains signals of the same quantity that are vastly different
        in size (such as high voltage circuitry combined with low voltage
        control circuitry), you should consider specifying global option
        `bin_relref=yes'.

~~~~~~~~~~~~~~~~~~~~~~~~~~~~~~~~~
Post-Transient Simulation Summary
~~~~~~~~~~~~~~~~~~~~~~~~~~~~~~~~~
   -   To further speed up simulation, consider
          add ++aps on command line
~~~~~~~~~~~~~~~~~~~~~~~~~~~~~~~~~


During simulation, the CPU load for active processors is :
         0 (100.0 %)     1 (10.4 %)      2 (8.7 %)       3 (26.6 %)
         4 (2.1 %)       5 (5.0 %)       6 (100.0 %)     7 (3.1 %)
         8 (24.4 %)      9 (1.4 %)      11 (1.4 %)      
        Total: 283.9%
Initial condition solution time: CPU = 4.53 ms, elapsed = 5.20301 ms.
Intrinsic tran analysis time:    CPU = 126.965 ms, elapsed = 187.296 ms.
Opening mt file: 
        /CASNFSHOME2/home/sstatthoudakis/Documents/spectre/Gates/NOR2/nor_validate/corners/corner_pin1/wire_load/nor_ss.mt4
Total time required for tran analysis `transient5': CPU = 134.729 ms, elapsed =
        210.826 ms, util. = 63.9%.
Time accumulated: CPU = 1.62044 s, elapsed = 2.94434 s.
Peak resident memory used = 141 Mbytes.


*************************
Alter Group `altergroup5'
*************************
Time for altergroup5: CPU = 6.909 ms, elapsed = 7.39193 ms.
Time accumulated: CPU = 1.62745 s, elapsed = 2.95333 s.
Peak resident memory used = 141 Mbytes.


*****************************************************
Transient Analysis `transient6': time = (0 s -> 2 ns)
*****************************************************
DC simulation time: CPU = 4.404 ms, elapsed = 4.40598 ms.

Notice from spectre during transient analysis `transient6'.
    No outputs were found. Loosening output filter criterion to `allpub'.


Opening the PSFXL file ./nor_ss.raw/transient6.tran.tran ...
Important parameter values:
    start = 0 s
    outputstart = 0 s
    stop = 2 ns
    step = 100 fs
    maxstep = 40 ps
    ic = all
    useprevic = no
    skipdc = no
    reltol = 1e-03
    abstol(V) = 1 uV
    abstol(I) = 1 pA
    temp = 125 C
    tnom = 27 C
    tempeffects = all
    errpreset = moderate
    method = traponly
    lteratio = 3.5
    relref = sigglobal
    cmin = 0 F
    gmin = 1 pS


Output and IC/nodeset summary:
                 probe  2       
                 save   3       (current)
                 save   165     (voltage)

......9......8......7......6......5......4......3......2......1......0
Number of accepted tran steps =             164

Maximum value achieved for any signal of each quantity: 
V: V(nor6.1:Q) = 1.042 V
I: I(VGND:p) = 40.25 uA
If your circuit contains signals of the same quantity that are vastly different
        in size (such as high voltage circuitry combined with low voltage
        control circuitry), you should consider specifying global option
        `bin_relref=yes'.

~~~~~~~~~~~~~~~~~~~~~~~~~~~~~~~~~
Post-Transient Simulation Summary
~~~~~~~~~~~~~~~~~~~~~~~~~~~~~~~~~
   -   To further speed up simulation, consider
          add ++aps on command line
~~~~~~~~~~~~~~~~~~~~~~~~~~~~~~~~~


During simulation, the CPU load for active processors is :
         0 (100.0 %)     1 (9.5 %)       2 (8.0 %)       3 (29.2 %)
         4 (1.9 %)       5 (4.6 %)       6 (100.0 %)     7 (2.9 %)
         8 (22.9 %)      9 (1.3 %)      11 (1.3 %)      
        Total: 282.2%
Initial condition solution time: CPU = 4.469 ms, elapsed = 5.16105 ms.
Intrinsic tran analysis time:    CPU = 124.473 ms, elapsed = 191.995 ms.
Opening mt file: 
        /CASNFSHOME2/home/sstatthoudakis/Documents/spectre/Gates/NOR2/nor_validate/corners/corner_pin1/wire_load/nor_ss.mt5
Total time required for tran analysis `transient6': CPU = 131.954 ms, elapsed =
        217.246 ms, util. = 60.7%.
Time accumulated: CPU = 1.7643 s, elapsed = 3.20914 s.
Peak resident memory used = 141 Mbytes.


*************************
Alter Group `altergroup6'
*************************
Time for altergroup6: CPU = 7.997 ms, elapsed = 8.61692 ms.
Time accumulated: CPU = 1.77243 s, elapsed = 3.21926 s.
Peak resident memory used = 141 Mbytes.


*****************************************************
Transient Analysis `transient7': time = (0 s -> 2 ns)
*****************************************************

Notice from spectre during IC analysis `timeSweep_cloned_6', during transient
        analysis `transient7'.
    Bad pivoting is found during DC analysis. Option dc_pivot_check=yes is
        recommended for possible improvement of convergence.

DC simulation time: CPU = 5.138 ms, elapsed = 6.11091 ms.

Notice from spectre during transient analysis `transient7'.
    No outputs were found. Loosening output filter criterion to `allpub'.


Opening the PSFXL file ./nor_ss.raw/transient7.tran.tran ...
Important parameter values:
    start = 0 s
    outputstart = 0 s
    stop = 2 ns
    step = 100 fs
    maxstep = 40 ps
    ic = all
    useprevic = no
    skipdc = no
    reltol = 1e-03
    abstol(V) = 1 uV
    abstol(I) = 1 pA
    temp = 0 C
    tnom = 27 C
    tempeffects = all
    errpreset = moderate
    method = traponly
    lteratio = 3.5
    relref = sigglobal
    cmin = 0 F
    gmin = 1 pS


Output and IC/nodeset summary:
                 probe  2       
                 save   3       (current)
                 save   165     (voltage)

......9......8......7......6......5......4......3......2......1......0
Number of accepted tran steps =             162

Maximum value achieved for any signal of each quantity: 
V: V(nor7.1:Q) = 1.072 V
I: I(VGND:p) = 44.06 uA
If your circuit contains signals of the same quantity that are vastly different
        in size (such as high voltage circuitry combined with low voltage
        control circuitry), you should consider specifying global option
        `bin_relref=yes'.

~~~~~~~~~~~~~~~~~~~~~~~~~~~~~~~~~
Post-Transient Simulation Summary
~~~~~~~~~~~~~~~~~~~~~~~~~~~~~~~~~
   -   To further speed up simulation, consider
          add ++aps on command line
~~~~~~~~~~~~~~~~~~~~~~~~~~~~~~~~~


During simulation, the CPU load for active processors is :
         0 (100.0 %)     1 (8.8 %)       2 (7.4 %)       3 (31.9 %)
         4 (1.8 %)       5 (4.5 %)       6 (100.0 %)     7 (2.6 %)
         8 (21.1 %)      9 (1.2 %)      11 (1.2 %)      
        Total: 281.0%
Initial condition solution time: CPU = 5.203 ms, elapsed = 6.54411 ms.
Intrinsic tran analysis time:    CPU = 144.37 ms, elapsed = 197.889 ms.
Opening mt file: 
        /CASNFSHOME2/home/sstatthoudakis/Documents/spectre/Gates/NOR2/nor_validate/corners/corner_pin1/wire_load/nor_ss.mt6
Total time required for tran analysis `transient7': CPU = 153.125 ms, elapsed =
        221.862 ms, util. = 69%.
Time accumulated: CPU = 1.93024 s, elapsed = 3.47525 s.
Peak resident memory used = 141 Mbytes.


*************************
Alter Group `altergroup7'
*************************
Time for altergroup7: CPU = 6.448 ms, elapsed = 6.88291 ms.
Time accumulated: CPU = 1.93679 s, elapsed = 3.48343 s.
Peak resident memory used = 141 Mbytes.


*****************************************************
Transient Analysis `transient8': time = (0 s -> 2 ns)
*****************************************************
DC simulation time: CPU = 4.137 ms, elapsed = 4.13799 ms.

Notice from spectre during transient analysis `transient8'.
    No outputs were found. Loosening output filter criterion to `allpub'.


Opening the PSFXL file ./nor_ss.raw/transient8.tran.tran ...
Important parameter values:
    start = 0 s
    outputstart = 0 s
    stop = 2 ns
    step = 100 fs
    maxstep = 40 ps
    ic = all
    useprevic = no
    skipdc = no
    reltol = 1e-03
    abstol(V) = 1 uV
    abstol(I) = 1 pA
    temp = 50 C
    tnom = 27 C
    tempeffects = all
    errpreset = moderate
    method = traponly
    lteratio = 3.5
    relref = sigglobal
    cmin = 0 F
    gmin = 1 pS


Output and IC/nodeset summary:
                 probe  2       
                 save   3       (current)
                 save   165     (voltage)

......9......8......7......6......5......4......3......2......1......0
Number of accepted tran steps =             161

Maximum value achieved for any signal of each quantity: 
V: V(nor8.1:Q) = 1.063 V
I: I(VGND:p) = 42.62 uA
If your circuit contains signals of the same quantity that are vastly different
        in size (such as high voltage circuitry combined with low voltage
        control circuitry), you should consider specifying global option
        `bin_relref=yes'.

~~~~~~~~~~~~~~~~~~~~~~~~~~~~~~~~~
Post-Transient Simulation Summary
~~~~~~~~~~~~~~~~~~~~~~~~~~~~~~~~~
   -   To further speed up simulation, consider
          add ++aps on command line
~~~~~~~~~~~~~~~~~~~~~~~~~~~~~~~~~


During simulation, the CPU load for active processors is :
         0 (100.0 %)     1 (8.2 %)       2 (7.7 %)       3 (34.1 %)
         4 (2.2 %)       5 (5.4 %)       6 (100.0 %)     7 (2.5 %)
         8 (20.1 %)      9 (1.1 %)      11 (1.1 %)      
        Total: 282.9%
Initial condition solution time: CPU = 4.195 ms, elapsed = 4.64296 ms.
Intrinsic tran analysis time:    CPU = 127.488 ms, elapsed = 164.363 ms.
Opening mt file: 
        /CASNFSHOME2/home/sstatthoudakis/Documents/spectre/Gates/NOR2/nor_validate/corners/corner_pin1/wire_load/nor_ss.mt7
Total time required for tran analysis `transient8': CPU = 134.5 ms, elapsed =
        183.023 ms, util. = 73.5%.
Time accumulated: CPU = 2.07578 s, elapsed = 3.69913 s.
Peak resident memory used = 141 Mbytes.


*************************
Alter Group `altergroup8'
*************************
Time for altergroup8: CPU = 6.348 ms, elapsed = 6.73318 ms.
Time accumulated: CPU = 2.08223 s, elapsed = 3.70746 s.
Peak resident memory used = 141 Mbytes.


*****************************************************
Transient Analysis `transient9': time = (0 s -> 2 ns)
*****************************************************
DC simulation time: CPU = 4.126 ms, elapsed = 4.12703 ms.

Notice from spectre during transient analysis `transient9'.
    No outputs were found. Loosening output filter criterion to `allpub'.


Opening the PSFXL file ./nor_ss.raw/transient9.tran.tran ...
Important parameter values:
    start = 0 s
    outputstart = 0 s
    stop = 2 ns
    step = 100 fs
    maxstep = 40 ps
    ic = all
    useprevic = no
    skipdc = no
    reltol = 1e-03
    abstol(V) = 1 uV
    abstol(I) = 1 pA
    temp = 125 C
    tnom = 27 C
    tempeffects = all
    errpreset = moderate
    method = traponly
    lteratio = 3.5
    relref = sigglobal
    cmin = 0 F
    gmin = 1 pS


Output and IC/nodeset summary:
                 probe  2       
                 save   3       (current)
                 save   165     (voltage)

......9......8......7......6......5......4......3......2......1......0
Number of accepted tran steps =             164

Maximum value achieved for any signal of each quantity: 
V: V(nor3.1:Q) = 1.054 V
I: I(VGND:p) = 41.12 uA
If your circuit contains signals of the same quantity that are vastly different
        in size (such as high voltage circuitry combined with low voltage
        control circuitry), you should consider specifying global option
        `bin_relref=yes'.

~~~~~~~~~~~~~~~~~~~~~~~~~~~~~~~~~
Post-Transient Simulation Summary
~~~~~~~~~~~~~~~~~~~~~~~~~~~~~~~~~
   -   To further speed up simulation, consider
          add ++aps on command line
~~~~~~~~~~~~~~~~~~~~~~~~~~~~~~~~~


During simulation, the CPU load for active processors is :
         0 (100.0 %)     1 (7.8 %)       2 (7.3 %)       3 (35.7 %)
         4 (2.1 %)       5 (5.3 %)       6 (100.0 %)     7 (2.3 %)
         8 (19.4 %)      9 (1.0 %)      11 (1.3 %)      
        Total: 282.6%
Initial condition solution time: CPU = 4.187 ms, elapsed = 4.78888 ms.
Intrinsic tran analysis time:    CPU = 118.016 ms, elapsed = 164.307 ms.
Opening mt file: 
        /CASNFSHOME2/home/sstatthoudakis/Documents/spectre/Gates/NOR2/nor_validate/corners/corner_pin1/wire_load/nor_ss.mt8
Total time required for tran analysis `transient9': CPU = 125.13 ms, elapsed =
        184.605 ms, util. = 67.8%.
Time accumulated: CPU = 2.21151 s, elapsed = 3.92149 s.
Peak resident memory used = 141 Mbytes.


*************************
Alter Group `altergroup9'
*************************
Time for altergroup9: CPU = 6.426 ms, elapsed = 6.73604 ms.
Time accumulated: CPU = 2.21804 s, elapsed = 3.92943 s.
Peak resident memory used = 141 Mbytes.


******************************************************
Transient Analysis `transient10': time = (0 s -> 2 ns)
******************************************************
DC simulation time: CPU = 4.121 ms, elapsed = 4.12202 ms.

Notice from spectre during transient analysis `transient10'.
    No outputs were found. Loosening output filter criterion to `allpub'.


Opening the PSFXL file ./nor_ss.raw/transient10.tran.tran ...
Important parameter values:
    start = 0 s
    outputstart = 0 s
    stop = 2 ns
    step = 100 fs
    maxstep = 40 ps
    ic = all
    useprevic = no
    skipdc = no
    reltol = 1e-03
    abstol(V) = 1 uV
    abstol(I) = 1 pA
    temp = 0 C
    tnom = 27 C
    tempeffects = all
    errpreset = moderate
    method = traponly
    lteratio = 3.5
    relref = sigglobal
    cmin = 0 F
    gmin = 1 pS


Output and IC/nodeset summary:
                 probe  2       
                 save   3       (current)
                 save   165     (voltage)

......9......8......7......6......5......4......3......2......1......0
Number of accepted tran steps =             161

Maximum value achieved for any signal of each quantity: 
V: V(nor7.1:Q) = 1.083 V
I: I(VGND:p) = 45.39 uA
If your circuit contains signals of the same quantity that are vastly different
        in size (such as high voltage circuitry combined with low voltage
        control circuitry), you should consider specifying global option
        `bin_relref=yes'.

~~~~~~~~~~~~~~~~~~~~~~~~~~~~~~~~~
Post-Transient Simulation Summary
~~~~~~~~~~~~~~~~~~~~~~~~~~~~~~~~~
   -   To further speed up simulation, consider
          add ++aps on command line
~~~~~~~~~~~~~~~~~~~~~~~~~~~~~~~~~


During simulation, the CPU load for active processors is :
         0 (100.0 %)     1 (7.3 %)       2 (6.9 %)       3 (37.3 %)
         4 (2.0 %)       5 (5.0 %)       6 (100.0 %)     7 (2.2 %)
         8 (18.4 %)     11 (1.2 %)      
        Total: 282.0%
Initial condition solution time: CPU = 4.182 ms, elapsed = 4.45819 ms.
Intrinsic tran analysis time:    CPU = 122.022 ms, elapsed = 167.149 ms.
Opening mt file: 
        /CASNFSHOME2/home/sstatthoudakis/Documents/spectre/Gates/NOR2/nor_validate/corners/corner_pin1/wire_load/nor_ss.mt9
Total time required for tran analysis `transient10': CPU = 129.04 ms, elapsed =
        186.476 ms, util. = 69.2%.
Time accumulated: CPU = 2.35117 s, elapsed = 4.14486 s.
Peak resident memory used = 141 Mbytes.


**************************
Alter Group `altergroup10'
**************************
Time for altergroup10: CPU = 6.461 ms, elapsed = 6.75797 ms.
Time accumulated: CPU = 2.35773 s, elapsed = 4.15269 s.
Peak resident memory used = 141 Mbytes.


******************************************************
Transient Analysis `transient11': time = (0 s -> 2 ns)
******************************************************
DC simulation time: CPU = 4.183 ms, elapsed = 4.1852 ms.

Notice from spectre during transient analysis `transient11'.
    No outputs were found. Loosening output filter criterion to `allpub'.


Opening the PSFXL file ./nor_ss.raw/transient11.tran.tran ...
Important parameter values:
    start = 0 s
    outputstart = 0 s
    stop = 2 ns
    step = 100 fs
    maxstep = 40 ps
    ic = all
    useprevic = no
    skipdc = no
    reltol = 1e-03
    abstol(V) = 1 uV
    abstol(I) = 1 pA
    temp = 50 C
    tnom = 27 C
    tempeffects = all
    errpreset = moderate
    method = traponly
    lteratio = 3.5
    relref = sigglobal
    cmin = 0 F
    gmin = 1 pS


Output and IC/nodeset summary:
                 probe  2       
                 save   3       (current)
                 save   165     (voltage)

......9......8......7......6......5......4......3......2......1......0
Number of accepted tran steps =             162

Maximum value achieved for any signal of each quantity: 
V: V(nor3.1:Q) = 1.073 V
I: I(VGND:p) = 43.7 uA
If your circuit contains signals of the same quantity that are vastly different
        in size (such as high voltage circuitry combined with low voltage
        control circuitry), you should consider specifying global option
        `bin_relref=yes'.

~~~~~~~~~~~~~~~~~~~~~~~~~~~~~~~~~
Post-Transient Simulation Summary
~~~~~~~~~~~~~~~~~~~~~~~~~~~~~~~~~
   -   To further speed up simulation, consider
          add ++aps on command line
~~~~~~~~~~~~~~~~~~~~~~~~~~~~~~~~~


During simulation, the CPU load for active processors is :
         0 (100.0 %)     1 (6.9 %)       2 (6.5 %)       3 (38.7 %)
         4 (1.9 %)       5 (4.8 %)       6 (100.0 %)     7 (2.1 %)
         8 (17.6 %)     11 (1.2 %)      
        Total: 281.4%
Initial condition solution time: CPU = 4.245 ms, elapsed = 4.89998 ms.
Intrinsic tran analysis time:    CPU = 128.523 ms, elapsed = 176.07 ms.
Opening mt file: 
        /CASNFSHOME2/home/sstatthoudakis/Documents/spectre/Gates/NOR2/nor_validate/corners/corner_pin1/wire_load/nor_ss.mt10
Total time required for tran analysis `transient11': CPU = 135.646 ms, elapsed
        = 196.916 ms, util. = 68.9%.
Time accumulated: CPU = 2.49803 s, elapsed = 4.38698 s.
Peak resident memory used = 141 Mbytes.


**************************
Alter Group `altergroup11'
**************************
Time for altergroup11: CPU = 6.734 ms, elapsed = 7.06315 ms.
Time accumulated: CPU = 2.50487 s, elapsed = 4.3954 s.
Peak resident memory used = 141 Mbytes.


******************************************************
Transient Analysis `transient12': time = (0 s -> 2 ns)
******************************************************
DC simulation time: CPU = 4.134 ms, elapsed = 4.13489 ms.

Notice from spectre during transient analysis `transient12'.
    No outputs were found. Loosening output filter criterion to `allpub'.


Opening the PSFXL file ./nor_ss.raw/transient12.tran.tran ...
Important parameter values:
    start = 0 s
    outputstart = 0 s
    stop = 2 ns
    step = 100 fs
    maxstep = 40 ps
    ic = all
    useprevic = no
    skipdc = no
    reltol = 1e-03
    abstol(V) = 1 uV
    abstol(I) = 1 pA
    temp = 125 C
    tnom = 27 C
    tempeffects = all
    errpreset = moderate
    method = traponly
    lteratio = 3.5
    relref = sigglobal
    cmin = 0 F
    gmin = 1 pS


Output and IC/nodeset summary:
                 probe  2       
                 save   3       (current)
                 save   165     (voltage)

......9......8......7......6......5......4......3......2......1......0
Number of accepted tran steps =             161

Maximum value achieved for any signal of each quantity: 
V: V(nor3.1:Q) = 1.065 V
I: I(VGND:p) = 41.99 uA
If your circuit contains signals of the same quantity that are vastly different
        in size (such as high voltage circuitry combined with low voltage
        control circuitry), you should consider specifying global option
        `bin_relref=yes'.

~~~~~~~~~~~~~~~~~~~~~~~~~~~~~~~~~
Post-Transient Simulation Summary
~~~~~~~~~~~~~~~~~~~~~~~~~~~~~~~~~
   -   To further speed up simulation, consider
          add ++aps on command line
~~~~~~~~~~~~~~~~~~~~~~~~~~~~~~~~~


During simulation, the CPU load for active processors is :
         0 (100.0 %)     1 (6.6 %)       2 (6.2 %)       3 (39.8 %)
         4 (1.8 %)       5 (4.7 %)       6 (100.0 %)     7 (2.0 %)
         8 (16.9 %)     11 (1.1 %)      
        Total: 280.7%
Initial condition solution time: CPU = 4.19 ms, elapsed = 4.82583 ms.
Intrinsic tran analysis time:    CPU = 117.523 ms, elapsed = 175.876 ms.
Opening mt file: 
        /CASNFSHOME2/home/sstatthoudakis/Documents/spectre/Gates/NOR2/nor_validate/corners/corner_pin1/wire_load/nor_ss.mt11
Total time required for tran analysis `transient12': CPU = 124.602 ms, elapsed
        = 199.003 ms, util. = 62.6%.
Time accumulated: CPU = 2.63364 s, elapsed = 4.62581 s.
Peak resident memory used = 141 Mbytes.


**************************
Alter Group `altergroup12'
**************************
Time for altergroup12: CPU = 6.737 ms, elapsed = 7.01594 ms.
Time accumulated: CPU = 2.64048 s, elapsed = 4.6339 s.
Peak resident memory used = 141 Mbytes.


******************************************************
Transient Analysis `transient13': time = (0 s -> 2 ns)
******************************************************
DC simulation time: CPU = 4.16 ms, elapsed = 4.16088 ms.

Notice from spectre during transient analysis `transient13'.
    No outputs were found. Loosening output filter criterion to `allpub'.


Opening the PSFXL file ./nor_ss.raw/transient13.tran.tran ...
Important parameter values:
    start = 0 s
    outputstart = 0 s
    stop = 2 ns
    step = 100 fs
    maxstep = 40 ps
    ic = all
    useprevic = no
    skipdc = no
    reltol = 1e-03
    abstol(V) = 1 uV
    abstol(I) = 1 pA
    temp = 0 C
    tnom = 27 C
    tempeffects = all
    errpreset = moderate
    method = traponly
    lteratio = 3.5
    relref = sigglobal
    cmin = 0 F
    gmin = 1 pS


Output and IC/nodeset summary:
                 probe  2       
                 save   3       (current)
                 save   165     (voltage)

......9......8......7......6......5......4......3......2......1......0
Number of accepted tran steps =             165

Maximum value achieved for any signal of each quantity: 
V: V(nor9.1:Q) = 1.092 V
I: I(VGND:p) = 46.64 uA
If your circuit contains signals of the same quantity that are vastly different
        in size (such as high voltage circuitry combined with low voltage
        control circuitry), you should consider specifying global option
        `bin_relref=yes'.

~~~~~~~~~~~~~~~~~~~~~~~~~~~~~~~~~
Post-Transient Simulation Summary
~~~~~~~~~~~~~~~~~~~~~~~~~~~~~~~~~
   -   To further speed up simulation, consider
          add ++aps on command line
~~~~~~~~~~~~~~~~~~~~~~~~~~~~~~~~~


During simulation, the CPU load for active processors is :
         0 (100.0 %)     1 (6.2 %)       2 (5.9 %)       3 (40.9 %)
         4 (1.7 %)       5 (4.5 %)       6 (100.0 %)     7 (1.9 %)
         8 (16.1 %)     10 (1.0 %)      11 (1.0 %)      
        Total: 280.0%
Initial condition solution time: CPU = 4.219 ms, elapsed = 4.47917 ms.
Intrinsic tran analysis time:    CPU = 131.07 ms, elapsed = 179.916 ms.
Opening mt file: 
        /CASNFSHOME2/home/sstatthoudakis/Documents/spectre/Gates/NOR2/nor_validate/corners/corner_pin1/wire_load/nor_ss.mt12
Total time required for tran analysis `transient13': CPU = 138.326 ms, elapsed
        = 199.413 ms, util. = 69.4%.
Time accumulated: CPU = 2.78371 s, elapsed = 4.90594 s.
Peak resident memory used = 141 Mbytes.


**************************
Alter Group `altergroup13'
**************************
Time for altergroup13: CPU = 8.681 ms, elapsed = 8.99291 ms.
Time accumulated: CPU = 2.79254 s, elapsed = 4.91883 s.
Peak resident memory used = 141 Mbytes.


******************************************************
Transient Analysis `transient14': time = (0 s -> 2 ns)
******************************************************
DC simulation time: CPU = 4.393 ms, elapsed = 4.39405 ms.

Notice from spectre during transient analysis `transient14'.
    No outputs were found. Loosening output filter criterion to `allpub'.


Opening the PSFXL file ./nor_ss.raw/transient14.tran.tran ...
Important parameter values:
    start = 0 s
    outputstart = 0 s
    stop = 2 ns
    step = 100 fs
    maxstep = 40 ps
    ic = all
    useprevic = no
    skipdc = no
    reltol = 1e-03
    abstol(V) = 1 uV
    abstol(I) = 1 pA
    temp = 50 C
    tnom = 27 C
    tempeffects = all
    errpreset = moderate
    method = traponly
    lteratio = 3.5
    relref = sigglobal
    cmin = 0 F
    gmin = 1 pS


Output and IC/nodeset summary:
                 probe  2       
                 save   3       (current)
                 save   165     (voltage)

......9......8......7......6......5......4......3......2......1......0
Number of accepted tran steps =             164

Maximum value achieved for any signal of each quantity: 
V: V(nor10.1:A) = 1.084 V
I: I(VGND:p) = 44.67 uA
If your circuit contains signals of the same quantity that are vastly different
        in size (such as high voltage circuitry combined with low voltage
        control circuitry), you should consider specifying global option
        `bin_relref=yes'.

~~~~~~~~~~~~~~~~~~~~~~~~~~~~~~~~~
Post-Transient Simulation Summary
~~~~~~~~~~~~~~~~~~~~~~~~~~~~~~~~~
   -   To further speed up simulation, consider
          add ++aps on command line
~~~~~~~~~~~~~~~~~~~~~~~~~~~~~~~~~


During simulation, the CPU load for active processors is :
         0 (100.0 %)     1 (5.9 %)       2 (5.7 %)       3 (41.7 %)
         4 (1.8 %)       5 (4.3 %)       6 (100.0 %)     7 (1.8 %)
         8 (16.2 %)      9 (1.2 %)      10 (1.4 %)      
        Total: 280.9%
Initial condition solution time: CPU = 4.463 ms, elapsed = 4.89593 ms.
Intrinsic tran analysis time:    CPU = 126.01 ms, elapsed = 167.859 ms.
Opening mt file: 
        /CASNFSHOME2/home/sstatthoudakis/Documents/spectre/Gates/NOR2/nor_validate/corners/corner_pin1/wire_load/nor_ss.mt13
Total time required for tran analysis `transient14': CPU = 133.747 ms, elapsed
        = 189.024 ms, util. = 70.8%.
Time accumulated: CPU = 2.93068 s, elapsed = 5.1379 s.
Peak resident memory used = 141 Mbytes.


**************************
Alter Group `altergroup14'
**************************
Time for altergroup14: CPU = 6.531 ms, elapsed = 6.95205 ms.
Time accumulated: CPU = 2.93732 s, elapsed = 5.14619 s.
Peak resident memory used = 141 Mbytes.


******************************************************
Transient Analysis `transient15': time = (0 s -> 2 ns)
******************************************************
DC simulation time: CPU = 4.157 ms, elapsed = 4.15897 ms.

Notice from spectre during transient analysis `transient15'.
    No outputs were found. Loosening output filter criterion to `allpub'.


Opening the PSFXL file ./nor_ss.raw/transient15.tran.tran ...
Important parameter values:
    start = 0 s
    outputstart = 0 s
    stop = 2 ns
    step = 100 fs
    maxstep = 40 ps
    ic = all
    useprevic = no
    skipdc = no
    reltol = 1e-03
    abstol(V) = 1 uV
    abstol(I) = 1 pA
    temp = 125 C
    tnom = 27 C
    tempeffects = all
    errpreset = moderate
    method = traponly
    lteratio = 3.5
    relref = sigglobal
    cmin = 0 F
    gmin = 1 pS


Output and IC/nodeset summary:
                 probe  2       
                 save   3       (current)
                 save   165     (voltage)

......9......8......7......6......5......4......3......2......1......0
Number of accepted tran steps =             175

Maximum value achieved for any signal of each quantity: 
V: V(nor10.2:Q) = 1.086 V
I: I(VGND:p) = 42.65 uA
If your circuit contains signals of the same quantity that are vastly different
        in size (such as high voltage circuitry combined with low voltage
        control circuitry), you should consider specifying global option
        `bin_relref=yes'.

~~~~~~~~~~~~~~~~~~~~~~~~~~~~~~~~~
Post-Transient Simulation Summary
~~~~~~~~~~~~~~~~~~~~~~~~~~~~~~~~~
   -   To further speed up simulation, consider
          add ++aps on command line
~~~~~~~~~~~~~~~~~~~~~~~~~~~~~~~~~


During simulation, the CPU load for active processors is :
         0 (100.0 %)     1 (5.6 %)       2 (6.2 %)       3 (42.7 %)
         4 (1.7 %)       5 (5.2 %)       6 (100.0 %)     7 (1.7 %)
         8 (15.6 %)      9 (1.1 %)      10 (1.5 %)      11 (1.1 %)
        Total: 282.6%
Initial condition solution time: CPU = 4.228 ms, elapsed = 4.66895 ms.
Intrinsic tran analysis time:    CPU = 137.332 ms, elapsed = 185.74 ms.
Opening mt file: 
        /CASNFSHOME2/home/sstatthoudakis/Documents/spectre/Gates/NOR2/nor_validate/corners/corner_pin1/wire_load/nor_ss.mt14
Total time required for tran analysis `transient15': CPU = 145.031 ms, elapsed
        = 207.264 ms, util. = 70%.
Time accumulated: CPU = 3.08664 s, elapsed = 5.38375 s.
Peak resident memory used = 141 Mbytes.


**************************
Alter Group `altergroup15'
**************************
Time for altergroup15: CPU = 6.448 ms, elapsed = 6.88004 ms.
Time accumulated: CPU = 3.09319 s, elapsed = 5.39184 s.
Peak resident memory used = 141 Mbytes.


******************************************************
Transient Analysis `transient16': time = (0 s -> 2 ns)
******************************************************

Notice from spectre during IC analysis `timeSweep_cloned_15', during transient
        analysis `transient16'.
    Bad pivoting is found during DC analysis. Option dc_pivot_check=yes is
        recommended for possible improvement of convergence.

DC simulation time: CPU = 4.315 ms, elapsed = 4.99201 ms.

Notice from spectre during transient analysis `transient16'.
    No outputs were found. Loosening output filter criterion to `allpub'.


Opening the PSFXL file ./nor_ss.raw/transient16.tran.tran ...
Important parameter values:
    start = 0 s
    outputstart = 0 s
    stop = 2 ns
    step = 100 fs
    maxstep = 40 ps
    ic = all
    useprevic = no
    skipdc = no
    reltol = 1e-03
    abstol(V) = 1 uV
    abstol(I) = 1 pA
    temp = 0 C
    tnom = 27 C
    tempeffects = all
    errpreset = moderate
    method = traponly
    lteratio = 3.5
    relref = sigglobal
    cmin = 0 F
    gmin = 1 pS


Output and IC/nodeset summary:
                 probe  2       
                 save   3       (current)
                 save   165     (voltage)

......9......8......7......6......5......4......3......2......1......0
Number of accepted tran steps =             166

Maximum value achieved for any signal of each quantity: 
V: V(nor8.1:A) = 1.102 V
I: I(VGND:p) = 47.6 uA
If your circuit contains signals of the same quantity that are vastly different
        in size (such as high voltage circuitry combined with low voltage
        control circuitry), you should consider specifying global option
        `bin_relref=yes'.

~~~~~~~~~~~~~~~~~~~~~~~~~~~~~~~~~
Post-Transient Simulation Summary
~~~~~~~~~~~~~~~~~~~~~~~~~~~~~~~~~
   -   To further speed up simulation, consider
          add ++aps on command line
~~~~~~~~~~~~~~~~~~~~~~~~~~~~~~~~~


During simulation, the CPU load for active processors is :
         0 (100.0 %)     1 (5.4 %)       2 (5.9 %)       3 (44.0 %)
         4 (1.8 %)       5 (5.0 %)       6 (100.0 %)     7 (1.8 %)
         8 (15.0 %)      9 (1.1 %)      10 (1.4 %)      11 (1.1 %)
        Total: 282.4%
Initial condition solution time: CPU = 4.377 ms, elapsed = 5.55682 ms.
Intrinsic tran analysis time:    CPU = 143.951 ms, elapsed = 194.845 ms.
Opening mt file: 
        /CASNFSHOME2/home/sstatthoudakis/Documents/spectre/Gates/NOR2/nor_validate/corners/corner_pin1/wire_load/nor_ss.mt15
Total time required for tran analysis `transient16': CPU = 151.314 ms, elapsed
        = 216.219 ms, util. = 70%.
Time accumulated: CPU = 3.24876 s, elapsed = 5.63835 s.
Peak resident memory used = 141 Mbytes.


**************************
Alter Group `altergroup16'
**************************
Time for altergroup16: CPU = 6.624 ms, elapsed = 7.02715 ms.
Time accumulated: CPU = 3.25548 s, elapsed = 5.64642 s.
Peak resident memory used = 141 Mbytes.


******************************************************
Transient Analysis `transient17': time = (0 s -> 2 ns)
******************************************************
DC simulation time: CPU = 4.416 ms, elapsed = 4.4179 ms.

Notice from spectre during transient analysis `transient17'.
    No outputs were found. Loosening output filter criterion to `allpub'.


Opening the PSFXL file ./nor_ss.raw/transient17.tran.tran ...
Important parameter values:
    start = 0 s
    outputstart = 0 s
    stop = 2 ns
    step = 100 fs
    maxstep = 40 ps
    ic = all
    useprevic = no
    skipdc = no
    reltol = 1e-03
    abstol(V) = 1 uV
    abstol(I) = 1 pA
    temp = 50 C
    tnom = 27 C
    tempeffects = all
    errpreset = moderate
    method = traponly
    lteratio = 3.5
    relref = sigglobal
    cmin = 0 F
    gmin = 1 pS


Output and IC/nodeset summary:
                 probe  2       
                 save   3       (current)
                 save   165     (voltage)

......9......8......7......6......5......4......3......2......1......0
Number of accepted tran steps =             165

Maximum value achieved for any signal of each quantity: 
V: V(nor7.1:Q) = 1.094 V
I: I(VGND:p) = 45.51 uA
If your circuit contains signals of the same quantity that are vastly different
        in size (such as high voltage circuitry combined with low voltage
        control circuitry), you should consider specifying global option
        `bin_relref=yes'.

~~~~~~~~~~~~~~~~~~~~~~~~~~~~~~~~~
Post-Transient Simulation Summary
~~~~~~~~~~~~~~~~~~~~~~~~~~~~~~~~~
   -   To further speed up simulation, consider
          add ++aps on command line
~~~~~~~~~~~~~~~~~~~~~~~~~~~~~~~~~


During simulation, the CPU load for active processors is :
         0 (100.0 %)     1 (5.2 %)       2 (5.7 %)       3 (44.8 %)
         4 (1.7 %)       5 (4.8 %)       6 (100.0 %)     7 (1.9 %)
         8 (14.7 %)      9 (1.0 %)      10 (1.4 %)      11 (1.0 %)
        Total: 282.2%
Initial condition solution time: CPU = 4.485 ms, elapsed = 4.99511 ms.
Intrinsic tran analysis time:    CPU = 130.631 ms, elapsed = 175.335 ms.
Opening mt file: 
        /CASNFSHOME2/home/sstatthoudakis/Documents/spectre/Gates/NOR2/nor_validate/corners/corner_pin1/wire_load/nor_ss.mt16
Total time required for tran analysis `transient17': CPU = 138.195 ms, elapsed
        = 196.654 ms, util. = 70.3%.
Time accumulated: CPU = 3.39846 s, elapsed = 5.87817 s.
Peak resident memory used = 141 Mbytes.


**************************
Alter Group `altergroup17'
**************************
Time for altergroup17: CPU = 7.734 ms, elapsed = 8.14605 ms.
Time accumulated: CPU = 3.40635 s, elapsed = 5.88746 s.
Peak resident memory used = 141 Mbytes.


******************************************************
Transient Analysis `transient18': time = (0 s -> 2 ns)
******************************************************
DC simulation time: CPU = 4.837 ms, elapsed = 4.83918 ms.

Notice from spectre during transient analysis `transient18'.
    No outputs were found. Loosening output filter criterion to `allpub'.


Opening the PSFXL file ./nor_ss.raw/transient18.tran.tran ...
Important parameter values:
    start = 0 s
    outputstart = 0 s
    stop = 2 ns
    step = 100 fs
    maxstep = 40 ps
    ic = all
    useprevic = no
    skipdc = no
    reltol = 1e-03
    abstol(V) = 1 uV
    abstol(I) = 1 pA
    temp = 125 C
    tnom = 27 C
    tempeffects = all
    errpreset = moderate
    method = traponly
    lteratio = 3.5
    relref = sigglobal
    cmin = 0 F
    gmin = 1 pS


Output and IC/nodeset summary:
                 probe  2       
                 save   3       (current)
                 save   165     (voltage)

......9......8......7......6......5.....

Notice from spectre at time = 1.155 ns during transient analysis
        `transient18'.
    Found trapezoidal ringing on node VGND:p.

......9......8......7......6......5......4......3......2......1......0
Number of accepted tran steps =             178

Notice from spectre during transient analysis `transient18'.
    Trapezoidal ringing is detected during tran analysis.
        Please use method=trap for better results and performance.


Maximum value achieved for any signal of each quantity: 
V: V(nor10.2:Q) = 1.101 V
I: I(VGND:p) = 43.21 uA
If your circuit contains signals of the same quantity that are vastly different
        in size (such as high voltage circuitry combined with low voltage
        control circuitry), you should consider specifying global option
        `bin_relref=yes'.

~~~~~~~~~~~~~~~~~~~~~~~~~~~~~~~~~
Post-Transient Simulation Summary
~~~~~~~~~~~~~~~~~~~~~~~~~~~~~~~~~
   -   To further speed up simulation, consider
          add ++aps on command line
~~~~~~~~~~~~~~~~~~~~~~~~~~~~~~~~~


During simulation, the CPU load for active processors is :
         0 (100.0 %)     1 (4.9 %)       2 (5.4 %)       3 (45.5 %)
         4 (1.6 %)       5 (4.7 %)       6 (100.0 %)     7 (1.8 %)
         8 (14.2 %)     10 (1.5 %)      
        Total: 281.8%
Initial condition solution time: CPU = 4.918 ms, elapsed = 5.32508 ms.
Intrinsic tran analysis time:    CPU = 136.628 ms, elapsed = 202.334 ms.
Opening mt file: 
        /CASNFSHOME2/home/sstatthoudakis/Documents/spectre/Gates/NOR2/nor_validate/corners/corner_pin1/wire_load/nor_ss.mt17
Total time required for tran analysis `transient18': CPU = 144.884 ms, elapsed
        = 223.599 ms, util. = 64.8%.
Time accumulated: CPU = 3.55569 s, elapsed = 6.14193 s.
Peak resident memory used = 141 Mbytes.


**************************
Alter Group `altergroup18'
**************************
Time for altergroup18: CPU = 6.558 ms, elapsed = 6.82712 ms.
Time accumulated: CPU = 3.56237 s, elapsed = 6.14976 s.
Peak resident memory used = 141 Mbytes.


******************************************************
Transient Analysis `transient19': time = (0 s -> 2 ns)
******************************************************
DC simulation time: CPU = 4.375 ms, elapsed = 4.37713 ms.

Notice from spectre during transient analysis `transient19'.
    No outputs were found. Loosening output filter criterion to `allpub'.


Opening the PSFXL file ./nor_ss.raw/transient19.tran.tran ...
Important parameter values:
    start = 0 s
    outputstart = 0 s
    stop = 2 ns
    step = 100 fs
    maxstep = 40 ps
    ic = all
    useprevic = no
    skipdc = no
    reltol = 1e-03
    abstol(V) = 1 uV
    abstol(I) = 1 pA
    temp = 0 C
    tnom = 27 C
    tempeffects = all
    errpreset = moderate
    method = traponly
    lteratio = 3.5
    relref = sigglobal
    cmin = 0 F
    gmin = 1 pS


Output and IC/nodeset summary:
                 probe  2       
                 save   3       (current)
                 save   165     (voltage)

......9......8......7......6......5......4......3......2......1......0
Number of accepted tran steps =             169

Maximum value achieved for any signal of each quantity: 
V: V(nor8.1:A) = 1.112 V
I: I(VGND:p) = 48.54 uA
If your circuit contains signals of the same quantity that are vastly different
        in size (such as high voltage circuitry combined with low voltage
        control circuitry), you should consider specifying global option
        `bin_relref=yes'.

~~~~~~~~~~~~~~~~~~~~~~~~~~~~~~~~~
Post-Transient Simulation Summary
~~~~~~~~~~~~~~~~~~~~~~~~~~~~~~~~~
   -   To further speed up simulation, consider
          add ++aps on command line
~~~~~~~~~~~~~~~~~~~~~~~~~~~~~~~~~


During simulation, the CPU load for active processors is :
         0 (100.0 %)     1 (4.7 %)       2 (5.2 %)       3 (46.4 %)
         4 (1.6 %)       5 (4.6 %)       6 (100.0 %)     7 (1.7 %)
         8 (13.8 %)      9 (1.1 %)      10 (1.4 %)      
        Total: 281.6%
Initial condition solution time: CPU = 4.444 ms, elapsed = 4.83894 ms.
Intrinsic tran analysis time:    CPU = 134.381 ms, elapsed = 181.546 ms.
Opening mt file: 
        /CASNFSHOME2/home/sstatthoudakis/Documents/spectre/Gates/NOR2/nor_validate/corners/corner_pin1/wire_load/nor_ss.mt18
Total time required for tran analysis `transient19': CPU = 141.864 ms, elapsed
        = 201.626 ms, util. = 70.4%.
Time accumulated: CPU = 3.70883 s, elapsed = 6.38528 s.
Peak resident memory used = 141 Mbytes.


**************************
Alter Group `altergroup19'
**************************
Time for altergroup19: CPU = 6.594 ms, elapsed = 6.88887 ms.
Time accumulated: CPU = 3.71555 s, elapsed = 6.39339 s.
Peak resident memory used = 141 Mbytes.


******************************************************
Transient Analysis `transient20': time = (0 s -> 2 ns)
******************************************************
DC simulation time: CPU = 4.445 ms, elapsed = 4.44818 ms.

Notice from spectre during transient analysis `transient20'.
    No outputs were found. Loosening output filter criterion to `allpub'.


Opening the PSFXL file ./nor_ss.raw/transient20.tran.tran ...
Important parameter values:
    start = 0 s
    outputstart = 0 s
    stop = 2 ns
    step = 100 fs
    maxstep = 40 ps
    ic = all
    useprevic = no
    skipdc = no
    reltol = 1e-03
    abstol(V) = 1 uV
    abstol(I) = 1 pA
    temp = 50 C
    tnom = 27 C
    tempeffects = all
    errpreset = moderate
    method = traponly
    lteratio = 3.5
    relref = sigglobal
    cmin = 0 F
    gmin = 1 pS


Output and IC/nodeset summary:
                 probe  2       
                 save   3       (current)
                 save   165     (voltage)

......9......8......7......6......5......4......3......2......1......0
Number of accepted tran steps =             170

Maximum value achieved for any signal of each quantity: 
V: V(nor7.1:Q) = 1.105 V
I: I(VGND:p) = 46.2 uA
If your circuit contains signals of the same quantity that are vastly different
        in size (such as high voltage circuitry combined with low voltage
        control circuitry), you should consider specifying global option
        `bin_relref=yes'.

~~~~~~~~~~~~~~~~~~~~~~~~~~~~~~~~~
Post-Transient Simulation Summary
~~~~~~~~~~~~~~~~~~~~~~~~~~~~~~~~~
   -   To further speed up simulation, consider
          add ++aps on command line
~~~~~~~~~~~~~~~~~~~~~~~~~~~~~~~~~


During simulation, the CPU load for active processors is :
         0 (100.0 %)     1 (4.6 %)       2 (5.1 %)       3 (47.1 %)
         4 (1.5 %)       5 (4.4 %)       6 (100.0 %)     7 (1.7 %)
         8 (13.5 %)      9 (1.1 %)      10 (1.4 %)      11 (1.1 %)
        Total: 281.3%
Initial condition solution time: CPU = 4.509 ms, elapsed = 4.94504 ms.
Intrinsic tran analysis time:    CPU = 135.696 ms, elapsed = 173.845 ms.
Opening mt file: 
        /CASNFSHOME2/home/sstatthoudakis/Documents/spectre/Gates/NOR2/nor_validate/corners/corner_pin1/wire_load/nor_ss.mt19
Total time required for tran analysis `transient20': CPU = 143.234 ms, elapsed
        = 194.457 ms, util. = 73.7%.
Time accumulated: CPU = 3.86332 s, elapsed = 6.61838 s.
Peak resident memory used = 141 Mbytes.


**************************
Alter Group `altergroup20'
**************************
Time for altergroup20: CPU = 6.682 ms, elapsed = 7.09605 ms.
Time accumulated: CPU = 3.87013 s, elapsed = 6.62687 s.
Peak resident memory used = 141 Mbytes.


******************************************************
Transient Analysis `transient21': time = (0 s -> 2 ns)
******************************************************
DC simulation time: CPU = 4.301 ms, elapsed = 4.30322 ms.

Notice from spectre during transient analysis `transient21'.
    No outputs were found. Loosening output filter criterion to `allpub'.


Opening the PSFXL file ./nor_ss.raw/transient21.tran.tran ...
Important parameter values:
    start = 0 s
    outputstart = 0 s
    stop = 2 ns
    step = 100 fs
    maxstep = 40 ps
    ic = all
    useprevic = no
    skipdc = no
    reltol = 1e-03
    abstol(V) = 1 uV
    abstol(I) = 1 pA
    temp = 125 C
    tnom = 27 C
    tempeffects = all
    errpreset = moderate
    method = traponly
    lteratio = 3.5
    relref = sigglobal
    cmin = 0 F
    gmin = 1 pS


Output and IC/nodeset summary:
                 probe  2       
                 save   3       (current)
                 save   165     (voltage)

......9......8......7......6......5......4......3......2......1......0
Number of accepted tran steps =             175

Maximum value achieved for any signal of each quantity: 
V: V(nor10.2:Q) = 1.111 V
I: I(VGND:p) = 43.65 uA
If your circuit contains signals of the same quantity that are vastly different
        in size (such as high voltage circuitry combined with low voltage
        control circuitry), you should consider specifying global option
        `bin_relref=yes'.

~~~~~~~~~~~~~~~~~~~~~~~~~~~~~~~~~
Post-Transient Simulation Summary
~~~~~~~~~~~~~~~~~~~~~~~~~~~~~~~~~
   -   To further speed up simulation, consider
          add ++aps on command line
~~~~~~~~~~~~~~~~~~~~~~~~~~~~~~~~~


During simulation, the CPU load for active processors is :
         0 (100.0 %)     1 (4.4 %)       2 (4.9 %)       3 (47.9 %)
         4 (2.1 %)       5 (4.8 %)       6 (100.0 %)     7 (1.6 %)
         8 (13.0 %)      9 (1.0 %)      10 (1.5 %)      11 (1.0 %)
        Total: 282.1%
Initial condition solution time: CPU = 4.376 ms, elapsed = 4.85897 ms.
Intrinsic tran analysis time:    CPU = 139.805 ms, elapsed = 191.689 ms.
Opening mt file: 
        /CASNFSHOME2/home/sstatthoudakis/Documents/spectre/Gates/NOR2/nor_validate/corners/corner_pin1/wire_load/nor_ss.mt20
Total time required for tran analysis `transient21': CPU = 147.424 ms, elapsed
        = 213.223 ms, util. = 69.1%.
Time accumulated: CPU = 4.02222 s, elapsed = 6.87301 s.
Peak resident memory used = 141 Mbytes.


**************************
Alter Group `altergroup21'
**************************
Time for altergroup21: CPU = 6.988 ms, elapsed = 7.24912 ms.
Time accumulated: CPU = 4.02932 s, elapsed = 6.88155 s.
Peak resident memory used = 141 Mbytes.


******************************************************
Transient Analysis `transient22': time = (0 s -> 2 ns)
******************************************************
DC simulation time: CPU = 4.473 ms, elapsed = 4.47607 ms.

Notice from spectre during transient analysis `transient22'.
    No outputs were found. Loosening output filter criterion to `allpub'.


Opening the PSFXL file ./nor_ss.raw/transient22.tran.tran ...
Important parameter values:
    start = 0 s
    outputstart = 0 s
    stop = 2 ns
    step = 100 fs
    maxstep = 40 ps
    ic = all
    useprevic = no
    skipdc = no
    reltol = 1e-03
    abstol(V) = 1 uV
    abstol(I) = 1 pA
    temp = 0 C
    tnom = 27 C
    tempeffects = all
    errpreset = moderate
    method = traponly
    lteratio = 3.5
    relref = sigglobal
    cmin = 0 F
    gmin = 1 pS


Output and IC/nodeset summary:
                 probe  2       
                 save   3       (current)
                 save   165     (voltage)

......9......8......7......6......5.....

Notice from spectre at time = 1.155 ns during transient analysis
        `transient22'.
    Found trapezoidal ringing on node VGND:p.

......9......8......7......6......5......4......3......2......1......0
Number of accepted tran steps =             173

Notice from spectre during transient analysis `transient22'.
    Trapezoidal ringing is detected during tran analysis.
        Please use method=trap for better results and performance.


Maximum value achieved for any signal of each quantity: 
V: V(nor8.3:A) = 1.122 V
I: I(VGND:p) = 49.29 uA
If your circuit contains signals of the same quantity that are vastly different
        in size (such as high voltage circuitry combined with low voltage
        control circuitry), you should consider specifying global option
        `bin_relref=yes'.

~~~~~~~~~~~~~~~~~~~~~~~~~~~~~~~~~
Post-Transient Simulation Summary
~~~~~~~~~~~~~~~~~~~~~~~~~~~~~~~~~
   -   To further speed up simulation, consider
          add ++aps on command line
~~~~~~~~~~~~~~~~~~~~~~~~~~~~~~~~~


During simulation, the CPU load for active processors is :
         0 (100.0 %)     1 (4.2 %)       2 (4.7 %)       3 (48.5 %)
         4 (2.1 %)       5 (4.8 %)       6 (100.0 %)     7 (1.7 %)
         8 (12.6 %)     10 (1.4 %)      
        Total: 282.1%
Initial condition solution time: CPU = 4.541 ms, elapsed = 4.83704 ms.
Intrinsic tran analysis time:    CPU = 142.624 ms, elapsed = 203.267 ms.
Opening mt file: 
        /CASNFSHOME2/home/sstatthoudakis/Documents/spectre/Gates/NOR2/nor_validate/corners/corner_pin1/wire_load/nor_ss.mt21
Total time required for tran analysis `transient22': CPU = 150.203 ms, elapsed
        = 223.103 ms, util. = 67.3%.
Time accumulated: CPU = 4.18418 s, elapsed = 7.13557 s.
Peak resident memory used = 141 Mbytes.


**************************
Alter Group `altergroup22'
**************************
Time for altergroup22: CPU = 6.507 ms, elapsed = 6.79994 ms.
Time accumulated: CPU = 4.19079 s, elapsed = 7.14358 s.
Peak resident memory used = 141 Mbytes.


******************************************************
Transient Analysis `transient23': time = (0 s -> 2 ns)
******************************************************
DC simulation time: CPU = 4.128 ms, elapsed = 4.12893 ms.

Notice from spectre during transient analysis `transient23'.
    No outputs were found. Loosening output filter criterion to `allpub'.


Opening the PSFXL file ./nor_ss.raw/transient23.tran.tran ...
Important parameter values:
    start = 0 s
    outputstart = 0 s
    stop = 2 ns
    step = 100 fs
    maxstep = 40 ps
    ic = all
    useprevic = no
    skipdc = no
    reltol = 1e-03
    abstol(V) = 1 uV
    abstol(I) = 1 pA
    temp = 50 C
    tnom = 27 C
    tempeffects = all
    errpreset = moderate
    method = traponly
    lteratio = 3.5
    relref = sigglobal
    cmin = 0 F
    gmin = 1 pS


Output and IC/nodeset summary:
                 probe  2       
                 save   3       (current)
                 save   165     (voltage)

......9......8......7......6......5......4......3......2......1......0
Number of accepted tran steps =             170

Maximum value achieved for any signal of each quantity: 
V: V(nor10.2:Q) = 1.131 V
I: I(VGND:p) = 47.04 uA
If your circuit contains signals of the same quantity that are vastly different
        in size (such as high voltage circuitry combined with low voltage
        control circuitry), you should consider specifying global option
        `bin_relref=yes'.

~~~~~~~~~~~~~~~~~~~~~~~~~~~~~~~~~
Post-Transient Simulation Summary
~~~~~~~~~~~~~~~~~~~~~~~~~~~~~~~~~
   -   To further speed up simulation, consider
          add ++aps on command line
~~~~~~~~~~~~~~~~~~~~~~~~~~~~~~~~~


During simulation, the CPU load for active processors is :
         0 (100.0 %)     1 (4.1 %)       2 (4.5 %)       3 (49.0 %)
         4 (2.1 %)       5 (4.8 %)       6 (100.0 %)     7 (1.7 %)
         8 (12.4 %)     10 (1.4 %)      
        Total: 281.8%
Initial condition solution time: CPU = 4.19 ms, elapsed = 4.68397 ms.
Intrinsic tran analysis time:    CPU = 132.248 ms, elapsed = 170.265 ms.
Opening mt file: 
        /CASNFSHOME2/home/sstatthoudakis/Documents/spectre/Gates/NOR2/nor_validate/corners/corner_pin1/wire_load/nor_ss.mt22
Total time required for tran analysis `transient23': CPU = 139.442 ms, elapsed
        = 190.344 ms, util. = 73.3%.
Time accumulated: CPU = 4.33491 s, elapsed = 7.36568 s.
Peak resident memory used = 141 Mbytes.


**************************
Alter Group `altergroup23'
**************************
Time for altergroup23: CPU = 6.531 ms, elapsed = 6.82712 ms.
Time accumulated: CPU = 4.34155 s, elapsed = 7.37356 s.
Peak resident memory used = 141 Mbytes.


******************************************************
Transient Analysis `transient24': time = (0 s -> 2 ns)
******************************************************
DC simulation time: CPU = 4.118 ms, elapsed = 4.12011 ms.

Notice from spectre during transient analysis `transient24'.
    No outputs were found. Loosening output filter criterion to `allpub'.


Opening the PSFXL file ./nor_ss.raw/transient24.tran.tran ...
Important parameter values:
    start = 0 s
    outputstart = 0 s
    stop = 2 ns
    step = 100 fs
    maxstep = 40 ps
    ic = all
    useprevic = no
    skipdc = no
    reltol = 1e-03
    abstol(V) = 1 uV
    abstol(I) = 1 pA
    temp = 125 C
    tnom = 27 C
    tempeffects = all
    errpreset = moderate
    method = traponly
    lteratio = 3.5
    relref = sigglobal
    cmin = 0 F
    gmin = 1 pS


Output and IC/nodeset summary:
                 probe  2       
                 save   3       (current)
                 save   165     (voltage)

......9......8......7......6......5......4......3......2......1......0
Number of accepted tran steps =             176

Maximum value achieved for any signal of each quantity: 
V: V(nor10.1:Q) = 1.122 V
I: I(VGND:p) = 44.02 uA
If your circuit contains signals of the same quantity that are vastly different
        in size (such as high voltage circuitry combined with low voltage
        control circuitry), you should consider specifying global option
        `bin_relref=yes'.

~~~~~~~~~~~~~~~~~~~~~~~~~~~~~~~~~
Post-Transient Simulation Summary
~~~~~~~~~~~~~~~~~~~~~~~~~~~~~~~~~
   -   To further speed up simulation, consider
          add ++aps on command line
~~~~~~~~~~~~~~~~~~~~~~~~~~~~~~~~~


During simulation, the CPU load for active processors is :
         0 (100.0 %)     1 (4.0 %)       2 (4.4 %)       3 (49.5 %)
         4 (2.1 %)       5 (4.6 %)       6 (100.0 %)     7 (1.6 %)
         8 (12.1 %)     10 (1.5 %)      
        Total: 281.7%
Initial condition solution time: CPU = 4.182 ms, elapsed = 4.63581 ms.
Intrinsic tran analysis time:    CPU = 127.152 ms, elapsed = 173.106 ms.
Opening mt file: 
        /CASNFSHOME2/home/sstatthoudakis/Documents/spectre/Gates/NOR2/nor_validate/corners/corner_pin1/wire_load/nor_ss.mt23
Total time required for tran analysis `transient24': CPU = 134.289 ms, elapsed
        = 193.18 ms, util. = 69.5%.
Time accumulated: CPU = 4.48044 s, elapsed = 7.60095 s.
Peak resident memory used = 141 Mbytes.


**************************
Alter Group `altergroup24'
**************************
Time for altergroup24: CPU = 6.542 ms, elapsed = 6.81686 ms.
Time accumulated: CPU = 4.4871 s, elapsed = 7.60878 s.
Peak resident memory used = 141 Mbytes.


******************************************************
Transient Analysis `transient25': time = (0 s -> 2 ns)
******************************************************
DC simulation time: CPU = 4.165 ms, elapsed = 4.16803 ms.

Notice from spectre during transient analysis `transient25'.
    No outputs were found. Loosening output filter criterion to `allpub'.


Opening the PSFXL file ./nor_ss.raw/transient25.tran.tran ...
Important parameter values:
    start = 0 s
    outputstart = 0 s
    stop = 2 ns
    step = 100 fs
    maxstep = 40 ps
    ic = all
    useprevic = no
    skipdc = no
    reltol = 1e-03
    abstol(V) = 1 uV
    abstol(I) = 1 pA
    temp = 0 C
    tnom = 27 C
    tempeffects = all
[...]
***************************
Time for altergroup142: CPU = 9.713 ms, elapsed = 10.772 ms.
Time accumulated: CPU = 25.1557 s, elapsed = 61.3017 s (1m  1.3s).
Peak resident memory used = 144 Mbytes.


*******************************************************
Transient Analysis `transient143': time = (0 s -> 2 ns)
*******************************************************
DC simulation time: CPU = 6.299 ms, elapsed = 6.30093 ms.

Notice from spectre during transient analysis `transient143'.
    No outputs were found. Loosening output filter criterion to `allpub'.


Opening the PSFXL file ./nor_ss.raw/transient143.tran.tran ...
Important parameter values:
    start = 0 s
    outputstart = 0 s
    stop = 2 ns
    step = 100 fs
    maxstep = 40 ps
    ic = all
    useprevic = no
    skipdc = no
    reltol = 1e-03
    abstol(V) = 1 uV
    abstol(I) = 1 pA
    temp = 50 C
    tnom = 27 C
    tempeffects = all
    errpreset = moderate
    method = traponly
    lteratio = 3.5
    relref = sigglobal
    cmin = 0 F
    gmin = 1 pS


Output and IC/nodeset summary:
                 probe  2       
                 save   3       (current)
                 save   165     (voltage)

......9......8......7...

Notice from spectre at time = 727.978 ps during transient analysis
        `transient143'.
    Found trapezoidal ringing on node VGND:p.

......9......8......7....

Notice from spectre at time = 767.978 ps during transient analysis
        `transient143'.
    Found trapezoidal ringing on node VGND:p.

......9......8......7......

Notice from spectre at time = 807.978 ps during transient analysis
        `transient143'.
    Found trapezoidal ringing on node VGND:p.

......9......8......7......6

Notice from spectre at time = 847.978 ps during transient analysis
        `transient143'.
    Found trapezoidal ringing on node VGND:p.

......9......8......7......6..

Notice from spectre at time = 887.978 ps during transient analysis
        `transient143'.
    Found trapezoidal ringing on node VGND:p.
        Further occurrences of this notice will be suppressed (except in log
        file).

......9......8......7......6......5......4......3......2......1......0
Number of accepted tran steps =             197

Notice from spectre during transient analysis `transient143'.
    Trapezoidal ringing is detected during tran analysis.
        Please use method=trap for better results and performance.


Maximum value achieved for any signal of each quantity: 
V: V(nor10.2:Q) = 1.562 V
I: I(VVDD:p) = 87.24 uA
If your circuit contains signals of the same quantity that are vastly different
        in size (such as high voltage circuitry combined with low voltage
        control circuitry), you should consider specifying global option
        `bin_relref=yes'.

~~~~~~~~~~~~~~~~~~~~~~~~~~~~~~~~~
Post-Transient Simulation Summary
~~~~~~~~~~~~~~~~~~~~~~~~~~~~~~~~~
   -   To further speed up simulation, consider
          add ++aps on command line
~~~~~~~~~~~~~~~~~~~~~~~~~~~~~~~~~


During simulation, the CPU load for active processors is :
         0 (49.2 %)      1 (9.5 %)       2 (60.0 %)      3 (14.1 %)
         4 (5.7 %)       5 (12.0 %)      6 (100.0 %)     7 (2.9 %)
         8 (3.4 %)       9 (1.0 %)      10 (2.6 %)      
        Total: 261.4%
Initial condition solution time: CPU = 6.384 ms, elapsed = 6.69193 ms.
Intrinsic tran analysis time:    CPU = 172.734 ms, elapsed = 263.086 ms.
Opening mt file: 
        /CASNFSHOME2/home/sstatthoudakis/Documents/spectre/Gates/NOR2/nor_validate/corners/corner_pin1/wire_load/nor_ss.mt142
Total time required for tran analysis `transient143': CPU = 182.571 ms, elapsed
        = 284.425 ms, util. = 64.2%.
Time accumulated: CPU = 25.3448 s, elapsed = 61.6239 s (1m  1.6s).
Peak resident memory used = 144 Mbytes.


Notice from spectre.
    7 notices suppressed.


***************************
Alter Group `altergroup143'
***************************
Time for altergroup143: CPU = 11.533 ms, elapsed = 12.6829 ms.
Time accumulated: CPU = 25.3565 s, elapsed = 61.6383 s (1m  1.6s).
Peak resident memory used = 144 Mbytes.


*******************************************************
Transient Analysis `transient144': time = (0 s -> 2 ns)
*******************************************************
DC simulation time: CPU = 5.798 ms, elapsed = 5.80001 ms.

Notice from spectre during transient analysis `transient144'.
    No outputs were found. Loosening output filter criterion to `allpub'.


Opening the PSFXL file ./nor_ss.raw/transient144.tran.tran ...
Important parameter values:
    start = 0 s
    outputstart = 0 s
    stop = 2 ns
    step = 100 fs
    maxstep = 40 ps
    ic = all
    useprevic = no
    skipdc = no
    reltol = 1e-03
    abstol(V) = 1 uV
    abstol(I) = 1 pA
    temp = 125 C
    tnom = 27 C
    tempeffects = all
    errpreset = moderate
    method = traponly
    lteratio = 3.5
    relref = sigglobal
    cmin = 0 F
    gmin = 1 pS


Output and IC/nodeset summary:
                 probe  2       
                 save   3       (current)
                 save   165     (voltage)

......9......8......7...

Notice from spectre at time = 736.623 ps during transient analysis
        `transient144'.
    Found trapezoidal ringing on node VVDD:p.

......9......8......7.....

Notice from spectre at time = 776.623 ps during transient analysis
        `transient144'.
    Found trapezoidal ringing on node VVDD:p.

......9......8......7......

Notice from spectre at time = 816.623 ps during transient analysis
        `transient144'.
    Found trapezoidal ringing on node VVDD:p.

......9......8......7......6.

Notice from spectre at time = 856.623 ps during transient analysis
        `transient144'.
    Found trapezoidal ringing on node VVDD:p.

......9......8......7......6..

Notice from spectre at time = 896.623 ps during transient analysis
        `transient144'.
    Found trapezoidal ringing on node VVDD:p.
        Further occurrences of this notice will be suppressed (except in log
        file).

......9......8......7......6......5......4......3......2......1......0
Number of accepted tran steps =             190

Notice from spectre during transient analysis `transient144'.
    Trapezoidal ringing is detected during tran analysis.
        Please use method=trap for better results and performance.


Maximum value achieved for any signal of each quantity: 
V: V(nor10.2:Q) = 1.555 V
I: I(VGND:p) = 84.44 uA
If your circuit contains signals of the same quantity that are vastly different
        in size (such as high voltage circuitry combined with low voltage
        control circuitry), you should consider specifying global option
        `bin_relref=yes'.

~~~~~~~~~~~~~~~~~~~~~~~~~~~~~~~~~
Post-Transient Simulation Summary
~~~~~~~~~~~~~~~~~~~~~~~~~~~~~~~~~
   -   To further speed up simulation, consider
          add ++aps on command line
~~~~~~~~~~~~~~~~~~~~~~~~~~~~~~~~~


During simulation, the CPU load for active processors is :
         0 (49.0 %)      1 (9.5 %)       2 (60.2 %)      3 (14.3 %)
         4 (5.7 %)       5 (11.9 %)      6 (100.0 %)     7 (2.9 %)
         8 (3.4 %)       9 (1.1 %)      10 (2.6 %)      
        Total: 261.5%
Initial condition solution time: CPU = 5.869 ms, elapsed = 6.29401 ms.
Intrinsic tran analysis time:    CPU = 144.291 ms, elapsed = 235.79 ms.
Opening mt file: 
        /CASNFSHOME2/home/sstatthoudakis/Documents/spectre/Gates/NOR2/nor_validate/corners/corner_pin1/wire_load/nor_ss.mt143
Total time required for tran analysis `transient144': CPU = 153.192 ms, elapsed
        = 256.565 ms, util. = 59.7%.
Time accumulated: CPU = 25.5144 s, elapsed = 61.9268 s (1m  1.9s).
Peak resident memory used = 144 Mbytes.


Notice from spectre.
    7 notices suppressed.


***************************
Alter Group `altergroup144'
***************************
Time for altergroup144: CPU = 7.765 ms, elapsed = 9.16982 ms.
Time accumulated: CPU = 25.5222 s, elapsed = 61.9376 s (1m  1.9s).
Peak resident memory used = 144 Mbytes.


*******************************************************
Transient Analysis `transient145': time = (0 s -> 2 ns)
*******************************************************
DC simulation time: CPU = 4.848 ms, elapsed = 4.85015 ms.

Notice from spectre during transient analysis `transient145'.
    No outputs were found. Loosening output filter criterion to `allpub'.


Opening the PSFXL file ./nor_ss.raw/transient145.tran.tran ...
Important parameter values:
    start = 0 s
    outputstart = 0 s
    stop = 2 ns
    step = 100 fs
    maxstep = 40 ps
    ic = all
    useprevic = no
    skipdc = no
    reltol = 1e-03
    abstol(V) = 1 uV
    abstol(I) = 1 pA
    temp = 0 C
    tnom = 27 C
    tempeffects = all
    errpreset = moderate
    method = traponly
    lteratio = 3.5
    relref = sigglobal
    cmin = 0 F
    gmin = 1 pS


Output and IC/nodeset summary:
                 probe  2       
                 save   3       (current)
                 save   165     (voltage)

......9......8......7....

Notice from spectre at time = 744.438 ps during transient analysis
        `transient145'.
    Found trapezoidal ringing on node VVDD:p.

......9......8......7.....

Notice from spectre at time = 784.438 ps during transient analysis
        `transient145'.
    Found trapezoidal ringing on node VVDD:p.

......9......8......7......

Notice from spectre at time = 824.438 ps during transient analysis
        `transient145'.
    Found trapezoidal ringing on node VVDD:p.

......9......8......7......6.

Notice from spectre at time = 864.438 ps during transient analysis
        `transient145'.
    Found trapezoidal ringing on node VVDD:p.

......9......8......7......6..

Notice from spectre at time = 904.438 ps during transient analysis
        `transient145'.
    Found trapezoidal ringing on node VVDD:p.
        Further occurrences of this notice will be suppressed (except in log
        file).

......9......8......7......6......5......4......3......2......1......0
Number of accepted tran steps =             201

Notice from spectre during transient analysis `transient145'.
    Trapezoidal ringing is detected during tran analysis.
        Please use method=trap for better results and performance.


Maximum value achieved for any signal of each quantity: 
V: V(nor10.2:Q) = 1.577 V
I: I(VVDD:p) = 93.35 uA
If your circuit contains signals of the same quantity that are vastly different
        in size (such as high voltage circuitry combined with low voltage
        control circuitry), you should consider specifying global option
        `bin_relref=yes'.

~~~~~~~~~~~~~~~~~~~~~~~~~~~~~~~~~
Post-Transient Simulation Summary
~~~~~~~~~~~~~~~~~~~~~~~~~~~~~~~~~
   -   To further speed up simulation, consider
          add ++aps on command line
~~~~~~~~~~~~~~~~~~~~~~~~~~~~~~~~~


During simulation, the CPU load for active processors is :
         0 (48.8 %)      1 (9.5 %)       2 (60.4 %)      3 (14.5 %)
         4 (5.7 %)       5 (11.9 %)      6 (100.0 %)     7 (2.9 %)
         8 (3.5 %)       9 (1.0 %)      10 (2.6 %)      
        Total: 261.7%
Initial condition solution time: CPU = 4.916 ms, elapsed = 5.32794 ms.
Intrinsic tran analysis time:    CPU = 151.151 ms, elapsed = 246.68 ms.
Opening mt file: 
        /CASNFSHOME2/home/sstatthoudakis/Documents/spectre/Gates/NOR2/nor_validate/corners/corner_pin1/wire_load/nor_ss.mt144
Total time required for tran analysis `transient145': CPU = 158.997 ms, elapsed
        = 267.701 ms, util. = 59.4%.
Time accumulated: CPU = 25.6858 s, elapsed = 62.2394 s (1m  2.2s).
Peak resident memory used = 144 Mbytes.


Notice from spectre.
    9 notices suppressed.


***************************
Alter Group `altergroup145'
***************************
Time for altergroup145: CPU = 7.957 ms, elapsed = 8.85606 ms.
Time accumulated: CPU = 25.6939 s, elapsed = 62.2495 s (1m  2.2s).
Peak resident memory used = 144 Mbytes.


*******************************************************
Transient Analysis `transient146': time = (0 s -> 2 ns)
*******************************************************
DC simulation time: CPU = 5.284 ms, elapsed = 5.28383 ms.

Notice from spectre during transient analysis `transient146'.
    No outputs were found. Loosening output filter criterion to `allpub'.


Opening the PSFXL file ./nor_ss.raw/transient146.tran.tran ...
Important parameter values:
    start = 0 s
    outputstart = 0 s
    stop = 2 ns
    step = 100 fs
    maxstep = 40 ps
    ic = all
    useprevic = no
    skipdc = no
    reltol = 1e-03
    abstol(V) = 1 uV
    abstol(I) = 1 pA
    temp = 50 C
    tnom = 27 C
    tempeffects = all
    errpreset = moderate
    method = traponly
    lteratio = 3.5
    relref = sigglobal
    cmin = 0 F
    gmin = 1 pS


Output and IC/nodeset summary:
                 probe  2       
                 save   3       (current)
                 save   165     (voltage)

......9......8......7....

Notice from spectre at time = 761.354 ps during transient analysis
        `transient146'.
    Found trapezoidal ringing on node nor6.1:A.

......9......8......7......

Notice from spectre at time = 801.354 ps during transient analysis
        `transient146'.
    Found trapezoidal ringing on node nor6.1:A.

......9......8......7......6

Notice from spectre at time = 841.354 ps during transient analysis
        `transient146'.
    Found trapezoidal ringing on node nor6.1:A.

......9......8......7......6.

Notice from spectre at time = 881.354 ps during transient analysis
        `transient146'.
    Found trapezoidal ringing on node nor6.1:A.

......9......8......7......6...

Notice from spectre at time = 921.354 ps during transient analysis
        `transient146'.
    Found trapezoidal ringing on node nor6.1:A.
        Further occurrences of this notice will be suppressed (except in log
        file).

......9......8......7......6......5......4......3......2......1......0
Number of accepted tran steps =             195

Notice from spectre during transient analysis `transient146'.
    Trapezoidal ringing is detected during tran analysis.
        Please use method=trap for better results and performance.


Maximum value achieved for any signal of each quantity: 
V: V(nor10.1:Q) = 1.573 V
I: I(VGND:p) = 89.3 uA
If your circuit contains signals of the same quantity that are vastly different
        in size (such as high voltage circuitry combined with low voltage
        control circuitry), you should consider specifying global option
        `bin_relref=yes'.

~~~~~~~~~~~~~~~~~~~~~~~~~~~~~~~~~
Post-Transient Simulation Summary
~~~~~~~~~~~~~~~~~~~~~~~~~~~~~~~~~
   -   To further speed up simulation, consider
          add ++aps on command line
~~~~~~~~~~~~~~~~~~~~~~~~~~~~~~~~~


During simulation, the CPU load for active processors is :
         0 (48.5 %)      1 (9.5 %)       2 (60.6 %)      3 (14.7 %)
         4 (5.7 %)       5 (11.9 %)      6 (100.0 %)     7 (2.9 %)
         8 (3.4 %)       9 (1.0 %)      10 (2.6 %)      
        Total: 261.7%
Initial condition solution time: CPU = 5.349 ms, elapsed = 5.77807 ms.
Intrinsic tran analysis time:    CPU = 147.416 ms, elapsed = 228.243 ms.
Opening mt file: 
        /CASNFSHOME2/home/sstatthoudakis/Documents/spectre/Gates/NOR2/nor_validate/corners/corner_pin1/wire_load/nor_ss.mt145
Total time required for tran analysis `transient146': CPU = 155.819 ms, elapsed
        = 249.731 ms, util. = 62.4%.
Time accumulated: CPU = 25.8553 s, elapsed = 62.5344 s (1m  2.5s).
Peak resident memory used = 144 Mbytes.


Notice from spectre.
    7 notices suppressed.


***************************
Alter Group `altergroup146'
***************************
Time for altergroup146: CPU = 9.41 ms, elapsed = 10.4239 ms.
Time accumulated: CPU = 25.8649 s, elapsed = 62.5461 s (1m  2.5s).
Peak resident memory used = 144 Mbytes.


*******************************************************
Transient Analysis `transient147': time = (0 s -> 2 ns)
*******************************************************
DC simulation time: CPU = 6.81 ms, elapsed = 6.81305 ms.

Notice from spectre during transient analysis `transient147'.
    No outputs were found. Loosening output filter criterion to `allpub'.


Opening the PSFXL file ./nor_ss.raw/transient147.tran.tran ...
Important parameter values:
    start = 0 s
    outputstart = 0 s
    stop = 2 ns
    step = 100 fs
    maxstep = 40 ps
    ic = all
    useprevic = no
    skipdc = no
    reltol = 1e-03
    abstol(V) = 1 uV
    abstol(I) = 1 pA
    temp = 125 C
    tnom = 27 C
    tempeffects = all
    errpreset = moderate
    method = traponly
    lteratio = 3.5
    relref = sigglobal
    cmin = 0 F
    gmin = 1 pS


Output and IC/nodeset summary:
                 probe  2       
                 save   3       (current)
                 save   165     (voltage)

......9......8......7...

Notice from spectre at time = 731.262 ps during transient analysis
        `transient147'.
    Found trapezoidal ringing on node VVDD:p.

......9......8......7.....

Notice from spectre at time = 771.262 ps during transient analysis
        `transient147'.
    Found trapezoidal ringing on node VVDD:p.

......9......8......7......

Notice from spectre at time = 811.262 ps during transient analysis
        `transient147'.
    Found trapezoidal ringing on node VVDD:p.

......9......8......7......6

Notice from spectre at time = 851.262 ps during transient analysis
        `transient147'.
    Found trapezoidal ringing on node VVDD:p.

......9......8......7......6..

Notice from spectre at time = 891.262 ps during transient analysis
        `transient147'.
    Found trapezoidal ringing on node VVDD:p.
        Further occurrences of this notice will be suppressed (except in log
        file).

......9......8......7......6......5......4......3......2......1......0
Number of accepted tran steps =             190

Notice from spectre during transient analysis `transient147'.
    Trapezoidal ringing is detected during tran analysis.
        Please use method=trap for better results and performance.


Maximum value achieved for any signal of each quantity: 
V: V(nor10.2:Q) = 1.566 V
I: I(VGND:p) = 86.14 uA
If your circuit contains signals of the same quantity that are vastly different
        in size (such as high voltage circuitry combined with low voltage
        control circuitry), you should consider specifying global option
        `bin_relref=yes'.

~~~~~~~~~~~~~~~~~~~~~~~~~~~~~~~~~
Post-Transient Simulation Summary
~~~~~~~~~~~~~~~~~~~~~~~~~~~~~~~~~
   -   To further speed up simulation, consider
          add ++aps on command line
~~~~~~~~~~~~~~~~~~~~~~~~~~~~~~~~~


During simulation, the CPU load for active processors is :
         0 (48.3 %)      1 (9.4 %)       2 (60.8 %)      3 (14.9 %)
         4 (5.7 %)       5 (11.8 %)      6 (100.0 %)     7 (2.9 %)
         8 (3.5 %)       9 (1.0 %)      10 (2.6 %)      
        Total: 261.8%
Initial condition solution time: CPU = 6.894 ms, elapsed = 7.35188 ms.
Intrinsic tran analysis time:    CPU = 156.39 ms, elapsed = 247.242 ms.
Opening mt file: 
        /CASNFSHOME2/home/sstatthoudakis/Documents/spectre/Gates/NOR2/nor_validate/corners/corner_pin1/wire_load/nor_ss.mt146
Total time required for tran analysis `transient147': CPU = 166.956 ms, elapsed
        = 271.434 ms, util. = 61.5%.
Time accumulated: CPU = 26.037 s, elapsed = 62.8519 s (1m  2.9s).
Peak resident memory used = 144 Mbytes.


Notice from spectre.
    7 notices suppressed.

Licensing Information:
Lic Summary:
[14:37:52.158409] Cdslmd servers:5280@10.64.82.10
[14:37:52.158467] Feature usage summary:
[14:37:52.158472] Virtuoso_Multi_mode_Simulation


Aggregate audit (2:37:52 PM, Wed Oct 29, 2025):
Time used: CPU = 26.1 s, elapsed = 63 s (1m  3.0s), util. = 41.4%.
Time spent in licensing: elapsed = 408 ms.
Peak memory used = 145 Mbytes.
Simulation started at: 2:36:49 PM, Wed Oct 29, 2025, ended at: 2:37:52 PM, Wed
        Oct 29, 2025, with elapsed time (wall clock): 63 s (1m  3.0s).
spectre completes with 0 errors, 12 warnings, and 893 notices.
