
Spectre (R) Circuit Simulator
Version 23.1.0.242.isr1 64bit -- 7 Sep 2023
Copyright (C) 1989-2023 Cadence Design Systems, Inc. All rights reserved
        worldwide. Cadence and Spectre are registered trademarks of Cadence
        Design Systems, Inc. All others are the property of their respective
        holders.

Includes RSA BSAFE(R) Cryptographic or Security Protocol Software from RSA
        Security, Inc.

User: sstatthoudakis   Host: torreyridge   HostID: 7F0100   PID: 29799
Memory  available: 104.5655 GB  physical: 135.0278 GB
Linux   : CentOS Linux release 7 (Core)
CPU Type: Intel(R) Xeon(R) Silver 4114 CPU @ 2.20GHz
All processors running at 2194.8 MHz
        Socket: Processors
        0:       0
        2:       1
        4:       2
        6:       3
        8:       4
        10:      5
        12:      6
        14:      7
        16:      8
        18:      9
        20:     10
        22:     11
        
System load averages (1min, 5min, 15min) : 25.9 %, 25.8 %, 23.2 %
This is a virtual machine


Simulating `nor_tt.scs' on torreyridge at 2:37:54 PM, Wed Oct 29, 2025 (process
        id: 29799).
Current working directory:
        /CASNFSHOME2/home/sstatthoudakis/Documents/spectre/Gates/NOR2/nor_validate/corners/corner_pin1/wire_load
Command line:
     \
        /CASNFSHOME/home/edatools/cadence/2023-24/RHELx86/SPECTRE_23.10.242/tools.lnx86/bin/spectre
        \
        -64 nor_tt.scs
Licensing Information:
[14:37:54.231873] Configured Lic search path (22.01-s002): 5280@10.64.82.10

Licensing Information:
[14:37:54.330099] Periodic Lic check successful

Reading file: 
        /CASNFSHOME2/home/sstatthoudakis/Documents/spectre/Gates/NOR2/nor_validate/corners/corner_pin1/wire_load/nor_tt.scs
Reading file: 
        /CASNFSHOME/home/edatools/cadence/2023-24/RHELx86/SPECTRE_23.10.242/tools.lnx86/spectre/etc/configs/spectre.cfg
Reading file: 
        /CASNFSHOME/home/tsaikaterini/IHP/IHP_Generation_files/130ng/ihp013ng_include_all.scs
Reading file: 
        /CASNFSHOME/home/tsaikaterini/IHP/IHP_Generation_files/130ng/SG13S_618_rev1.12.15/tech/SG13_HBT/VBIC/spectre/SG13_cornerBIP.scs
Reading file: 
        /CASNFSHOME/home/tsaikaterini/IHP/IHP_Generation_files/130ng/SG13S_618_rev1.12.15/tech/SG13_HBT/VBIC/spectre/SG13_hbt.lib
Reading file: 
        /CASNFSHOME/home/tsaikaterini/IHP/IHP_Generation_files/130ng/SG13S_618_rev1.12.15/tech/SG13_HBT/VBIC/spectre/SG13_hbt_mm.scs
Reading file: 
        /CASNFSHOME/home/tsaikaterini/IHP/IHP_Generation_files/130ng/SG13S_618_rev1.12.15/tech/SG13_HBT/VBIC/spectre/SG13_hbt_stat.scs
Reading file: 
        /CASNFSHOME/home/tsaikaterini/IHP/IHP_Generation_files/130ng/SG13S_618_rev1.12.15/tech/SG13_MOS/library/spectre/cornerMOSlv_psp.scs
Reading file: 
        /CASNFSHOME/home/tsaikaterini/IHP/IHP_Generation_files/130ng/SG13S_618_rev1.12.15/tech/SG13_MOS/library/spectre/sg13_moslv_psp_stat.scs
Reading file: 
        /CASNFSHOME/home/tsaikaterini/IHP/IHP_Generation_files/130ng/SG13S_618_rev1.12.15/tech/SG13_MOS/library/spectre/sg13_moslv_psp_mod.lib
Reading file: 
        /CASNFSHOME/home/tsaikaterini/IHP/IHP_Generation_files/130ng/SG13S_618_rev1.12.15/tech/SG13_MOS/library/spectre/sg13_moslv_psp_parm.scs
Reading file: 
        /CASNFSHOME/home/tsaikaterini/IHP/IHP_Generation_files/130ng/SG13S_618_rev1.12.15/tech/SG13_MOS/library/spectre/cornerMOShv_psp.scs
Reading file: 
        /CASNFSHOME/home/tsaikaterini/IHP/IHP_Generation_files/130ng/SG13S_618_rev1.12.15/tech/SG13_MOS/library/spectre/sg13_moshv_psp_stat.scs
Reading file: 
        /CASNFSHOME/home/tsaikaterini/IHP/IHP_Generation_files/130ng/SG13S_618_rev1.12.15/tech/SG13_MOS/library/spectre/sg13_moshv_psp_mod.lib
Reading file: 
        /CASNFSHOME/home/tsaikaterini/IHP/IHP_Generation_files/130ng/SG13S_618_rev1.12.15/tech/SG13_MOS/library/spectre/sg13_moshv_psp_parm.scs

Warning from spectre in `nmoselt', during circuit read-in.
    WARNING (SFE-2296):
        "/CASNFSHOME/home/tsaikaterini/IHP/IHP_Generation_files/130ng/SG13S_618_rev1.12.15/tech/SG13_MOS/library/spectre/sg13_moshv_psp_mod.lib"
        79: The inline subckt definition `nmoselt' does not contain any inline
        components. The `inline' qualifier will therefore be ignored.

Reading file: 
        /CASNFSHOME/home/tsaikaterini/IHP/IHP_Generation_files/130ng/SG13S_618_rev1.12.15/tech/SG13_MOS/library/spectre/sg13_svaricaphv_mosvar_mod.lib
Reading file: 
        /CASNFSHOME/home/tsaikaterini/IHP/IHP_Generation_files/130ng/SG13S_618_rev1.12.15/tech/SG13_PASSIVES/spectre/SG13_cornerRES.scs
Reading file: 
        /CASNFSHOME/home/tsaikaterini/IHP/IHP_Generation_files/130ng/SG13S_618_rev1.12.15/tech/SG13_PASSIVES/spectre/SG13_res_mm.scs
Reading file: 
        /CASNFSHOME/home/tsaikaterini/IHP/IHP_Generation_files/130ng/SG13S_618_rev1.12.15/tech/SG13_PASSIVES/spectre/SG13_res_stat.scs
Reading file: 
        /CASNFSHOME/home/tsaikaterini/IHP/IHP_Generation_files/130ng/SG13S_618_rev1.12.15/tech/SG13_PASSIVES/spectre/SG13_res.lib
Reading file: 
        /CASNFSHOME/home/tsaikaterini/IHP/IHP_Generation_files/130ng/SG13S_618_rev1.12.15/tech/SG13_PASSIVES/spectre/SG13_cornerCAP.scs
Reading file: 
        /CASNFSHOME/home/tsaikaterini/IHP/IHP_Generation_files/130ng/SG13S_618_rev1.12.15/tech/SG13_PASSIVES/spectre/SG13_cap_mm.scs
Reading file: 
        /CASNFSHOME/home/tsaikaterini/IHP/IHP_Generation_files/130ng/SG13S_618_rev1.12.15/tech/SG13_PASSIVES/spectre/SG13_cap_stat.scs
Reading file: 
        /CASNFSHOME/home/tsaikaterini/IHP/IHP_Generation_files/130ng/SG13S_618_rev1.12.15/tech/SG13_PASSIVES/spectre/SG13_cap.lib
Reading file: 
        /CASNFSHOME/home/tsaikaterini/IHP/IHP_Generation_files/130ng/SG13S_618_rev1.12.15/tech/SG13_PASSIVES/spectre/Ind_unit_4PI
Reading file: 
        /CASNFSHOME/home/tsaikaterini/IHP/IHP_Generation_files/130ng/SG13S_618_rev1.12.15/tech/SG13_PASSIVES/spectre/Parameters_define_4PI
Reading file: 
        /CASNFSHOME/home/tsaikaterini/IHP/IHP_Generation_files/130ng/SG13S_618_rev1.12.15/tech/SG13_PASSIVES/spectre/sg13s_dschottky_nbl1_mod.lib
Reading file: 
        /CASNFSHOME/home/tsaikaterini/IHP/IHP_Generation_files/130ng/SG13S_618_rev1.12.15/tech/SG13_PASSIVES/spectre/SG13_diodes.lib
Reading file: 
        /CASNFSHOME/home/tsaikaterini/IHP/IHP_Generation_files/130ng/SG13S_618_rev1.12.15/tech/SG13_MOS/library/spectre/CheckMOSstat.scs
Reading file: 
        /CASNFSHOME/home/tsaikaterini/IHP/IHP_Generation_files/130ng/SG13S_618_rev1.12.15/tech/SG13_MOS/library/spectre/CheckMOSdyn.scs
Reading file: 
        /CASNFSHOME/home/tsaikaterini/IHP/IHP_Generation_files/130ng/SG13S_618_rev1.12.15/tech/SG13_ESD/spectre/SG13_esd.lib
Reading file: 
        /CASNFSHOME/home/tsaikaterini/IHP/IHP_Generation_files/130ng/SG13S_618_rev1.12.15/tech/SG13_PASSIVES/spectre/SG13_cornerTSV.scs
Reading file: 
        /CASNFSHOME/home/tsaikaterini/IHP/IHP_Generation_files/130ng/SG13S_618_rev1.12.15/tech/SG13_PASSIVES/spectre/SG13_paramsTSV.scs
Reading file: 
        /CASNFSHOME/home/tsaikaterini/IHP/IHP_Generation_files/130ng/SG13S_618_rev1.12.15/tech/SG13_PASSIVES/spectre/SG13_tsv.lib
Reading file: 
        /CASNFSHOME/home/tsaikaterini/IHP/IHP_Generation_files/130ng/ixc013ng_stdcell_rc.scs
Time for NDB Parsing: CPU = 571.823 ms, elapsed = 1.33533 s.
Time accumulated: CPU = 686.909 ms, elapsed = 1.33533 s.
Peak resident memory used = 113 Mbytes.


Warning from spectre in `NO2JIX0':`nor1', during hierarchy flattening.
    WARNING (SFE-103):
        "/CASNFSHOME/home/tsaikaterini/IHP/IHP_Generation_files/130ng/ixc013ng_stdcell_rc.scs"
        28325: Subcircuit parameter `nrd', defined for subcircuit
        `sg13_lv_pmos', has been ignored because it is invalid. Check the
        parameters that are defined for the instantiated subcircuit and rerun
        the simulation.
    WARNING (SFE-103):
        "/CASNFSHOME/home/tsaikaterini/IHP/IHP_Generation_files/130ng/ixc013ng_stdcell_rc.scs"
        28325: Subcircuit parameter `nrs', defined for subcircuit
        `sg13_lv_pmos', has been ignored because it is invalid. Check the
        parameters that are defined for the instantiated subcircuit and rerun
        the simulation.
    WARNING (SFE-103):
        "/CASNFSHOME/home/tsaikaterini/IHP/IHP_Generation_files/130ng/ixc013ng_stdcell_rc.scs"
        28328: Subcircuit parameter `nrd', defined for subcircuit
        `sg13_lv_pmos', has been ignored because it is invalid. Check the
        parameters that are defined for the instantiated subcircuit and rerun
        the simulation.
    WARNING (SFE-103):
        "/CASNFSHOME/home/tsaikaterini/IHP/IHP_Generation_files/130ng/ixc013ng_stdcell_rc.scs"
        28328: Subcircuit parameter `nrs', defined for subcircuit
        `sg13_lv_pmos', has been ignored because it is invalid. Check the
        parameters that are defined for the instantiated subcircuit and rerun
        the simulation.
    WARNING (SFE-103):
        "/CASNFSHOME/home/tsaikaterini/IHP/IHP_Generation_files/130ng/ixc013ng_stdcell_rc.scs"
        28330: Subcircuit parameter `nrd', defined for subcircuit
        `sg13_lv_nmos', has been ignored because it is invalid. Check the
        parameters that are defined for the instantiated subcircuit and rerun
        the simulation.
        Further occurrences of this warning will be suppressed.

Time for Elaboration: CPU = 33.125 ms, elapsed = 153.042 ms.
Time accumulated: CPU = 720.28 ms, elapsed = 1.49018 s.
Peak resident memory used = 121 Mbytes.


Notice from spectre in `NO2JIX0':`nor1', during hierarchy flattening.
    nor1.c6: Terminals are connected together (to node `VSS').
Notice from spectre in `NO2JIX0':`nor2', during hierarchy flattening.
    nor2.c6: Terminals are connected together (to node `VSS').
Notice from spectre in `NO2JIX0':`nor3', during hierarchy flattening.
    nor3.c6: Terminals are connected together (to node `VSS').
Notice from spectre in `NO2JIX0':`nor4', during hierarchy flattening.
    nor4.c6: Terminals are connected together (to node `VSS').
Notice from spectre in `NO2JIX0':`nor5', during hierarchy flattening.
    nor5.c6: Terminals are connected together (to node `VSS').
        Further occurrences of this notice will be suppressed (except in log
        file).

Time for EDB Visiting: CPU = 29.312 ms, elapsed = 33.968 ms.
Time accumulated: CPU = 749.805 ms, elapsed = 1.52567 s.
Peak resident memory used = 128 Mbytes.


Warning from spectre during initial setup.
    WARNING (SPECTRE-17237): Assert violations will be written to the sqldb
        file because the 'checklimitdest' option has not been specified.
    WARNING (SPECTRE-17607): Assert `check_sg13s_lv_nmosHV_vgs' is ignored
        because it contains an expression which is not supported by native
        evaluator. 
    WARNING (SPECTRE-17607): Assert `check_sg13s_lv_nmosHV_vgd' is ignored
        because it contains an expression which is not supported by native
        evaluator. 
    WARNING (SPECTRE-17607): Assert `check_sg13s_lv_nmosHV_vds' is ignored
        because it contains an expression which is not supported by native
        evaluator. 
    WARNING (SPECTRE-17607): Assert `check_sg13s_lv_nmosHV_vdb' is ignored
        because it contains an expression which is not supported by native
        evaluator. 
    WARNING (SPECTRE-17607): Assert `check_sg13s_lv_nmosHV_vgb' is ignored
        because it contains an expression which is not supported by native
        evaluator. 
        Further occurrences of this warning will be suppressed.
Notice from spectre during topology check.
    Only one connection to the following 11 nodes:
        X_in1_wire.Capacitance*M
        X_out_wire.Capacitance*M
        X_out2_wire.Capacitance*M
        X_out3_wire.Capacitance*M
        X_out4_wire.Capacitance*M
        Further occurrences of this notice will be suppressed (except in log
        file).
    No DC path from node `X_in1_wire.Capacitance*M' to ground, Gmin installed
        to provide path.
    No DC path from node `X_out_wire.Capacitance*M' to ground, Gmin installed
        to provide path.
    No DC path from node `X_out2_wire.Capacitance*M' to ground, Gmin installed
        to provide path.
    No DC path from node `X_out3_wire.Capacitance*M' to ground, Gmin installed
        to provide path.
    No DC path from node `X_out4_wire.Capacitance*M' to ground, Gmin installed
        to provide path.
        Further occurrences of this notice will be suppressed (except in log
        file).


Global user options:
               temp = 0

Scoped user options:

Circuit inventory:
              nodes 165
          capacitor 181   
          pspnqs103 40    
           resistor 131   
            vsource 3     

Analysis and control statement inventory:
         altergroup 146   
               tran 147   

Output statements:
             .probe 0     
           .measure 3     
               save 0     

Design checks inventory:
          paramtest 160   
             assert 40    


Notice from spectre.
    12 notices suppressed.
    82 warnings suppressed.

Time for parsing: CPU = 15.874 ms, elapsed = 1.47711 s.
Time accumulated: CPU = 765.889 ms, elapsed = 3.00444 s.
Peak resident memory used = 131 Mbytes.

~~~~~~~~~~~~~~~~~~~~~~
Pre-Simulation Summary
~~~~~~~~~~~~~~~~~~~~~~
~~~~~~~~~~~~~~~~~~~~~~

Notice from spectre during transient analysis `transient1'.
    No checklimit analysis defined for asserts. A default checklimit analysis
        'SpectreChecklimitAnal' has been created with all asserts enabled.


*****************************************************
Transient Analysis `transient1': time = (0 s -> 2 ns)
*****************************************************
DC simulation time: CPU = 5.179 ms, elapsed = 5.17917 ms.

Notice from spectre during transient analysis `transient1'.
    No outputs were found. Loosening output filter criterion to `allpub'.


Opening the PSFXL file ./nor_tt.raw/transient1.tran.tran ...
Important parameter values:
    start = 0 s
    outputstart = 0 s
    stop = 2 ns
    step = 100 fs
    maxstep = 40 ps
    ic = all
    useprevic = no
    skipdc = no
    reltol = 1e-03
    abstol(V) = 1 uV
    abstol(I) = 1 pA
    temp = 0 C
    tnom = 27 C
    tempeffects = all
    errpreset = moderate
    method = traponly
    lteratio = 3.5
    relref = sigglobal
    cmin = 0 F
    gmin = 1 pS


Output and IC/nodeset summary:
                 probe  2       
                 save   3       (current)
                 save   165     (voltage)

......9......8......7......6......5.

Notice from spectre at time = 1.0788 ns during transient analysis
        `transient1'.
    Found trapezoidal ringing on node nor6.1:A.

......9......8......7......6......5...

Notice from spectre at time = 1.1188 ns during transient analysis
        `transient1'.
    Found trapezoidal ringing on node nor6.1:A.

......9......8......7......6......5....

Notice from spectre at time = 1.155 ns during transient analysis `transient1'.
    Found trapezoidal ringing on node nor6.1:A.

......9......8......7......6......5......4......3......2......1......0
Number of accepted tran steps =             186

Notice from spectre during transient analysis `transient1'.
    Trapezoidal ringing is detected during tran analysis.
        Please use method=trap for better results and performance.


Maximum value achieved for any signal of each quantity: 
V: V(nor10.1:Q) = 1.059 V
I: I(VGND:p) = 48.81 uA
If your circuit contains signals of the same quantity that are vastly different
        in size (such as high voltage circuitry combined with low voltage
        control circuitry), you should consider specifying global option
        `bin_relref=yes'.

~~~~~~~~~~~~~~~~~~~~~~~~~~~~~~~~~
Post-Transient Simulation Summary
~~~~~~~~~~~~~~~~~~~~~~~~~~~~~~~~~
   -   To further speed up simulation, consider
          add ++aps on command line
~~~~~~~~~~~~~~~~~~~~~~~~~~~~~~~~~


During simulation, the CPU load for active processors is :
         1 (3.9 %)       2 (100.0 %)     3 (16.7 %)      4 (1.5 %)
         5 (4.3 %)       6 (100.0 %)     7 (4.5 %)       8 (9.7 %)
         9 (8.5 %)      10 (1.8 %)      11 (3.3 %)      
        Total: 254.3%
Initial condition solution time: CPU = 5.288 ms, elapsed = 5.89395 ms.
Intrinsic tran analysis time:    CPU = 174.398 ms, elapsed = 303.088 ms.
Opening measure  file: 
        /CASNFSHOME2/home/sstatthoudakis/Documents/spectre/Gates/NOR2/nor_validate/corners/corner_pin1/wire_load/nor_tt.measure
Opening mt file: 
        /CASNFSHOME2/home/sstatthoudakis/Documents/spectre/Gates/NOR2/nor_validate/corners/corner_pin1/wire_load/nor_tt.mt0
Total time required for tran analysis `transient1': CPU = 271.507 ms, elapsed =
        582.664 ms, util. = 46.6%.
Time accumulated: CPU = 1.05593 s, elapsed = 3.64265 s.
Peak resident memory used = 139 Mbytes.


*************************
Alter Group `altergroup1'
*************************
Time for altergroup1: CPU = 18.601 ms, elapsed = 19.0289 ms.
Time accumulated: CPU = 1.07472 s, elapsed = 3.66306 s.
Peak resident memory used = 140 Mbytes.


*****************************************************
Transient Analysis `transient2': time = (0 s -> 2 ns)
*****************************************************
DC simulation time: CPU = 5.43 ms, elapsed = 5.43118 ms.

Notice from spectre during transient analysis `transient2'.
    No outputs were found. Loosening output filter criterion to `allpub'.


Opening the PSFXL file ./nor_tt.raw/transient2.tran.tran ...
Important parameter values:
    start = 0 s
    outputstart = 0 s
    stop = 2 ns
    step = 100 fs
    maxstep = 40 ps
    ic = all
    useprevic = no
    skipdc = no
    reltol = 1e-03
    abstol(V) = 1 uV
    abstol(I) = 1 pA
    temp = 50 C
    tnom = 27 C
    tempeffects = all
    errpreset = moderate
    method = traponly
    lteratio = 3.5
    relref = sigglobal
    cmin = 0 F
    gmin = 1 pS


Output and IC/nodeset summary:
                 probe  2       
                 save   3       (current)
                 save   165     (voltage)

......9......8......7......6......5.

Notice from spectre at time = 1.05944 ns during transient analysis
        `transient2'.
    Found trapezoidal ringing on node VVDD:p.

......9......8......7......6......5..

Notice from spectre at time = 1.09944 ns during transient analysis
        `transient2'.
    Found trapezoidal ringing on node VVDD:p.

......9......8......7......6......5...

Notice from spectre at time = 1.12722 ns during transient analysis
        `transient2'.
    Found trapezoidal ringing on node VVDD:p.

......9......8......7......6......5....

Notice from spectre at time = 1.155 ns during transient analysis `transient2'.
    Found trapezoidal ringing on node VVDD:p.

......9......8......7......6......5......4......3......2......1......0
Number of accepted tran steps =             184

Notice from spectre during transient analysis `transient2'.
    Trapezoidal ringing is detected during tran analysis.
        Please use method=trap for better results and performance.


Maximum value achieved for any signal of each quantity: 
V: V(nor10.1:Q) = 1.049 V
I: I(VGND:p) = 46.54 uA
If your circuit contains signals of the same quantity that are vastly different
        in size (such as high voltage circuitry combined with low voltage
        control circuitry), you should consider specifying global option
        `bin_relref=yes'.

~~~~~~~~~~~~~~~~~~~~~~~~~~~~~~~~~
Post-Transient Simulation Summary
~~~~~~~~~~~~~~~~~~~~~~~~~~~~~~~~~
   -   To further speed up simulation, consider
          add ++aps on command line
~~~~~~~~~~~~~~~~~~~~~~~~~~~~~~~~~


During simulation, the CPU load for active processors is :
         1 (3.3 %)       2 (100.0 %)     3 (14.1 %)      4 (1.3 %)
         5 (6.4 %)       6 (100.0 %)     7 (3.8 %)       8 (8.4 %)
         9 (15.2 %)     10 (1.8 %)      11 (3.0 %)      
        Total: 257.3%
Initial condition solution time: CPU = 5.522 ms, elapsed = 6.10995 ms.
Intrinsic tran analysis time:    CPU = 175.127 ms, elapsed = 299.301 ms.
Opening mt file: 
        /CASNFSHOME2/home/sstatthoudakis/Documents/spectre/Gates/NOR2/nor_validate/corners/corner_pin1/wire_load/nor_tt.mt1
Total time required for tran analysis `transient2': CPU = 184.564 ms, elapsed =
        323.729 ms, util. = 57%.
Time accumulated: CPU = 1.26551 s, elapsed = 4.02474 s.
Peak resident memory used = 140 Mbytes.


*************************
Alter Group `altergroup2'
*************************
Time for altergroup2: CPU = 8.33 ms, elapsed = 8.75592 ms.
Time accumulated: CPU = 1.27398 s, elapsed = 4.03484 s.
Peak resident memory used = 140 Mbytes.


*****************************************************
Transient Analysis `transient3': time = (0 s -> 2 ns)
*****************************************************
DC simulation time: CPU = 4.472 ms, elapsed = 4.47392 ms.

Notice from spectre during transient analysis `transient3'.
    No outputs were found. Loosening output filter criterion to `allpub'.


Opening the PSFXL file ./nor_tt.raw/transient3.tran.tran ...
Important parameter values:
    start = 0 s
    outputstart = 0 s
    stop = 2 ns
    step = 100 fs
    maxstep = 40 ps
    ic = all
    useprevic = no
    skipdc = no
    reltol = 1e-03
    abstol(V) = 1 uV
    abstol(I) = 1 pA
    temp = 125 C
    tnom = 27 C
    tempeffects = all
    errpreset = moderate
    method = traponly
    lteratio = 3.5
    relref = sigglobal
    cmin = 0 F
    gmin = 1 pS


Output and IC/nodeset summary:
                 probe  2       
                 save   3       (current)
                 save   165     (voltage)

......9......8......7......6......5...

Notice from spectre at time = 1.1155 ns during transient analysis
        `transient3'.
    Found trapezoidal ringing on node VGND:p.

......9......8......7......6......5....

Notice from spectre at time = 1.155 ns during transient analysis `transient3'.
    Found trapezoidal ringing on node VGND:p.

......9......8......7......6......5......4......3......2......1......0
Number of accepted tran steps =             191

Notice from spectre during transient analysis `transient3'.
    Trapezoidal ringing is detected during tran analysis.
        Please use method=trap for better results and performance.


Maximum value achieved for any signal of each quantity: 
V: V(nor10.1:Q) = 1.043 V
I: I(VGND:p) = 44.06 uA
If your circuit contains signals of the same quantity that are vastly different
        in size (such as high voltage circuitry combined with low voltage
        control circuitry), you should consider specifying global option
        `bin_relref=yes'.

~~~~~~~~~~~~~~~~~~~~~~~~~~~~~~~~~
Post-Transient Simulation Summary
~~~~~~~~~~~~~~~~~~~~~~~~~~~~~~~~~
   -   To further speed up simulation, consider
          add ++aps on command line
~~~~~~~~~~~~~~~~~~~~~~~~~~~~~~~~~


During simulation, the CPU load for active processors is :
         1 (6.8 %)       2 (100.0 %)     3 (13.2 %)      4 (1.2 %)
         5 (6.2 %)       6 (100.0 %)     7 (3.5 %)       8 (8.0 %)
         9 (14.2 %)     10 (1.7 %)      11 (2.8 %)      
        Total: 257.6%
Initial condition solution time: CPU = 4.545 ms, elapsed = 5.03302 ms.
Intrinsic tran analysis time:    CPU = 139.983 ms, elapsed = 223.994 ms.
Opening mt file: 
        /CASNFSHOME2/home/sstatthoudakis/Documents/spectre/Gates/NOR2/nor_validate/corners/corner_pin1/wire_load/nor_tt.mt2
Total time required for tran analysis `transient3': CPU = 148.01 ms, elapsed =
        246.692 ms, util. = 60%.
Time accumulated: CPU = 1.42716 s, elapsed = 4.31832 s.
Peak resident memory used = 140 Mbytes.


*************************
Alter Group `altergroup3'
*************************
Time for altergroup3: CPU = 7.098 ms, elapsed = 7.45106 ms.
Time accumulated: CPU = 1.43437 s, elapsed = 4.32707 s.
Peak resident memory used = 140 Mbytes.


*****************************************************
Transient Analysis `transient4': time = (0 s -> 2 ns)
*****************************************************
DC simulation time: CPU = 4.374 ms, elapsed = 4.37593 ms.

Notice from spectre during transient analysis `transient4'.
    No outputs were found. Loosening output filter criterion to `allpub'.


Opening the PSFXL file ./nor_tt.raw/transient4.tran.tran ...
Important parameter values:
    start = 0 s
    outputstart = 0 s
    stop = 2 ns
    step = 100 fs
    maxstep = 40 ps
    ic = all
    useprevic = no
    skipdc = no
    reltol = 1e-03
    abstol(V) = 1 uV
    abstol(I) = 1 pA
    temp = 0 C
    tnom = 27 C
    tempeffects = all
    errpreset = moderate
    method = traponly
    lteratio = 3.5
    relref = sigglobal
    cmin = 0 F
    gmin = 1 pS


Output and IC/nodeset summary:
                 probe  2       
                 save   3       (current)
                 save   165     (voltage)

......9......8......7......6.....

Notice from spectre at time = 987.456 ps during transient analysis
        `transient4'.
    Found trapezoidal ringing on node VGND:p.

......9......8......7......6......5

Notice from spectre at time = 1.02746 ns during transient analysis
        `transient4'.
    Found trapezoidal ringing on node VGND:p.

......9......8......7......6......5.

Notice from spectre at time = 1.06746 ns during transient analysis
        `transient4'.
    Found trapezoidal ringing on node VGND:p.

......9......8......7......6......5..

Notice from spectre at time = 1.10746 ns during transient analysis
        `transient4'.
    Found trapezoidal ringing on node VGND:p.

......9......8......7......6......5....

Notice from spectre at time = 1.13123 ns during transient analysis
        `transient4'.
    Found trapezoidal ringing on node VGND:p.
        Further occurrences of this notice will be suppressed (except in log
        file).

......9......8......7......6......5......4......3......2......1......0
Number of accepted tran steps =             191

Notice from spectre during transient analysis `transient4'.
    Trapezoidal ringing is detected during tran analysis.
        Please use method=trap for better results and performance.


Maximum value achieved for any signal of each quantity: 
V: V(nor10.1:Q) = 1.068 V
I: I(VGND:p) = 49.76 uA
If your circuit contains signals of the same quantity that are vastly different
        in size (such as high voltage circuitry combined with low voltage
        control circuitry), you should consider specifying global option
        `bin_relref=yes'.

~~~~~~~~~~~~~~~~~~~~~~~~~~~~~~~~~
Post-Transient Simulation Summary
~~~~~~~~~~~~~~~~~~~~~~~~~~~~~~~~~
   -   To further speed up simulation, consider
          add ++aps on command line
~~~~~~~~~~~~~~~~~~~~~~~~~~~~~~~~~


During simulation, the CPU load for active processors is :
         1 (10.0 %)      2 (100.0 %)     3 (12.2 %)      4 (1.3 %)
         5 (6.0 %)       6 (100.0 %)     7 (3.5 %)       8 (7.7 %)
         9 (13.3 %)     10 (1.5 %)      11 (2.6 %)      
        Total: 258.2%
Initial condition solution time: CPU = 4.461 ms, elapsed = 4.95601 ms.
Intrinsic tran analysis time:    CPU = 151.423 ms, elapsed = 263.123 ms.
Opening mt file: 
        /CASNFSHOME2/home/sstatthoudakis/Documents/spectre/Gates/NOR2/nor_validate/corners/corner_pin1/wire_load/nor_tt.mt3
Total time required for tran analysis `transient4': CPU = 159.257 ms, elapsed =
        286.379 ms, util. = 55.6%.
Time accumulated: CPU = 1.59886 s, elapsed = 4.64542 s.
Peak resident memory used = 140 Mbytes.


Notice from spectre.
    1 notice suppressed.


*************************
Alter Group `altergroup4'
*************************
Time for altergroup4: CPU = 8.342 ms, elapsed = 9.28211 ms.
Time accumulated: CPU = 1.60758 s, elapsed = 4.65632 s.
Peak resident memory used = 140 Mbytes.


*****************************************************
Transient Analysis `transient5': time = (0 s -> 2 ns)
*****************************************************
DC simulation time: CPU = 5.438 ms, elapsed = 5.44 ms.

Notice from spectre during transient analysis `transient5'.
    No outputs were found. Loosening output filter criterion to `allpub'.


Opening the PSFXL file ./nor_tt.raw/transient5.tran.tran ...
Important parameter values:
    start = 0 s
    outputstart = 0 s
    stop = 2 ns
    step = 100 fs
    maxstep = 40 ps
    ic = all
    useprevic = no
    skipdc = no
    reltol = 1e-03
    abstol(V) = 1 uV
    abstol(I) = 1 pA
    temp = 50 C
    tnom = 27 C
    tempeffects = all
    errpreset = moderate
    method = traponly
    lteratio = 3.5
    relref = sigglobal
    cmin = 0 F
    gmin = 1 pS


Output and IC/nodeset summary:
                 probe  2       
                 save   3       (current)
                 save   165     (voltage)

......9......8......7......6......5.

Notice from spectre at time = 1.0784 ns during transient analysis
        `transient5'.
    Found trapezoidal ringing on node VGND:p.

......9......8......7......6......5...

Notice from spectre at time = 1.1184 ns during transient analysis
        `transient5'.
    Found trapezoidal ringing on node VGND:p.

......9......8......7......6......5....

Notice from spectre at time = 1.155 ns during transient analysis `transient5'.
    Found trapezoidal ringing on node VGND:p.

......9......8......7......6......5......4......3......2......1......0
Number of accepted tran steps =             184

Notice from spectre during transient analysis `transient5'.
    Trapezoidal ringing is detected during tran analysis.
        Please use method=trap for better results and performance.


Maximum value achieved for any signal of each quantity: 
V: V(nor10.1:Q) = 1.059 V
I: I(VGND:p) = 47.46 uA
If your circuit contains signals of the same quantity that are vastly different
        in size (such as high voltage circuitry combined with low voltage
        control circuitry), you should consider specifying global option
        `bin_relref=yes'.

~~~~~~~~~~~~~~~~~~~~~~~~~~~~~~~~~
Post-Transient Simulation Summary
~~~~~~~~~~~~~~~~~~~~~~~~~~~~~~~~~
   -   To further speed up simulation, consider
          add ++aps on command line
~~~~~~~~~~~~~~~~~~~~~~~~~~~~~~~~~


During simulation, the CPU load for active processors is :
         1 (12.9 %)      2 (100.0 %)     3 (11.5 %)      4 (1.4 %)
         5 (6.0 %)       6 (100.0 %)     7 (3.3 %)       8 (7.2 %)
         9 (12.6 %)     10 (1.4 %)      11 (2.7 %)      
        Total: 259.0%
Initial condition solution time: CPU = 5.533 ms, elapsed = 5.93781 ms.
Intrinsic tran analysis time:    CPU = 157.929 ms, elapsed = 236.214 ms.
Opening mt file: 
        /CASNFSHOME2/home/sstatthoudakis/Documents/spectre/Gates/NOR2/nor_validate/corners/corner_pin1/wire_load/nor_tt.mt4
Total time required for tran analysis `transient5': CPU = 167.378 ms, elapsed =
        258.437 ms, util. = 64.8%.
Time accumulated: CPU = 1.78124 s, elapsed = 4.9499 s.
Peak resident memory used = 140 Mbytes.


*************************
Alter Group `altergroup5'
*************************
Time for altergroup5: CPU = 11.539 ms, elapsed = 12.017 ms.
Time accumulated: CPU = 1.79295 s, elapsed = 4.96341 s.
Peak resident memory used = 140 Mbytes.


*****************************************************
Transient Analysis `transient6': time = (0 s -> 2 ns)
*****************************************************
DC simulation time: CPU = 7.732 ms, elapsed = 7.73406 ms.

Notice from spectre during transient analysis `transient6'.
    No outputs were found. Loosening output filter criterion to `allpub'.


Opening the PSFXL file ./nor_tt.raw/transient6.tran.tran ...
Important parameter values:
    start = 0 s
    outputstart = 0 s
    stop = 2 ns
    step = 100 fs
    maxstep = 40 ps
    ic = all
    useprevic = no
    skipdc = no
    reltol = 1e-03
    abstol(V) = 1 uV
    abstol(I) = 1 pA
    temp = 125 C
    tnom = 27 C
    tempeffects = all
    errpreset = moderate
    method = traponly
    lteratio = 3.5
    relref = sigglobal
    cmin = 0 F
    gmin = 1 pS


Output and IC/nodeset summary:
                 probe  2       
                 save   3       (current)
                 save   165     (voltage)

......9......8......7......6......5.

Notice from spectre at time = 1.0687 ns during transient analysis
        `transient6'.
    Found trapezoidal ringing on node VGND:p.

......9......8......7......6......5..

Notice from spectre at time = 1.1087 ns during transient analysis
        `transient6'.
    Found trapezoidal ringing on node VGND:p.

......9......8......7......6......5....

Notice from spectre at time = 1.13185 ns during transient analysis
        `transient6'.
    Found trapezoidal ringing on node VGND:p.

......9......8......7......6......5.....

Notice from spectre at time = 1.155 ns during transient analysis `transient6'.
    Found trapezoidal ringing on node VGND:p.

......9......8......7......6......5......4......3......2......1......0
Number of accepted tran steps =             192

Notice from spectre during transient analysis `transient6'.
    Trapezoidal ringing is detected during tran analysis.
        Please use method=trap for better results and performance.


Maximum value achieved for any signal of each quantity: 
V: V(nor10.2:Q) = 1.053 V
I: I(VGND:p) = 44.46 uA
If your circuit contains signals of the same quantity that are vastly different
        in size (such as high voltage circuitry combined with low voltage
        control circuitry), you should consider specifying global option
        `bin_relref=yes'.

~~~~~~~~~~~~~~~~~~~~~~~~~~~~~~~~~
Post-Transient Simulation Summary
~~~~~~~~~~~~~~~~~~~~~~~~~~~~~~~~~
   -   To further speed up simulation, consider
          add ++aps on command line
~~~~~~~~~~~~~~~~~~~~~~~~~~~~~~~~~


During simulation, the CPU load for active processors is :
         1 (14.8 %)      2 (100.0 %)     3 (12.1 %)      4 (1.3 %)
         5 (7.4 %)       6 (100.0 %)     7 (3.3 %)       8 (6.7 %)
         9 (11.7 %)     10 (1.5 %)      11 (2.5 %)      
        Total: 261.2%
Initial condition solution time: CPU = 7.828 ms, elapsed = 8.30197 ms.
Intrinsic tran analysis time:    CPU = 162.74 ms, elapsed = 270.297 ms.
Opening mt file: 
        /CASNFSHOME2/home/sstatthoudakis/Documents/spectre/Gates/NOR2/nor_validate/corners/corner_pin1/wire_load/nor_tt.mt5
Total time required for tran analysis `transient6': CPU = 175.239 ms, elapsed =
        295.478 ms, util. = 59.3%.
Time accumulated: CPU = 1.97417 s, elapsed = 5.29271 s.
Peak resident memory used = 140 Mbytes.


*************************
Alter Group `altergroup6'
*************************
Time for altergroup6: CPU = 8.337 ms, elapsed = 8.58712 ms.
Time accumulated: CPU = 1.98265 s, elapsed = 5.30256 s.
Peak resident memory used = 140 Mbytes.


*****************************************************
Transient Analysis `transient7': time = (0 s -> 2 ns)
*****************************************************
DC simulation time: CPU = 5.252 ms, elapsed = 5.25308 ms.

Notice from spectre during transient analysis `transient7'.
    No outputs were found. Loosening output filter criterion to `allpub'.


Opening the PSFXL file ./nor_tt.raw/transient7.tran.tran ...
Important parameter values:
    start = 0 s
    outputstart = 0 s
    stop = 2 ns
    step = 100 fs
    maxstep = 40 ps
    ic = all
    useprevic = no
    skipdc = no
    reltol = 1e-03
    abstol(V) = 1 uV
    abstol(I) = 1 pA
    temp = 0 C
    tnom = 27 C
    tempeffects = all
    errpreset = moderate
    method = traponly
    lteratio = 3.5
    relref = sigglobal
    cmin = 0 F
    gmin = 1 pS


Output and IC/nodeset summary:
                 probe  2       
                 save   3       (current)
                 save   165     (voltage)

......9......8......7......6.....

Notice from spectre at time = 995.115 ps during transient analysis
        `transient7'.
    Found trapezoidal ringing on node VGND:p.

......9......8......7......6......5

Notice from spectre at time = 1.03511 ns during transient analysis
        `transient7'.
    Found trapezoidal ringing on node VGND:p.

......9......8......7......6......5.

Notice from spectre at time = 1.07511 ns during transient analysis
        `transient7'.
    Found trapezoidal ringing on node VGND:p.

......9......8......7......6......5...

Notice from spectre at time = 1.11511 ns during transient analysis
        `transient7'.
    Found trapezoidal ringing on node VGND:p.

......9......8......7......6......5....

Notice from spectre at time = 1.155 ns during transient analysis `transient7'.
    Found trapezoidal ringing on node VGND:p.
        Further occurrences of this notice will be suppressed (except in log
        file).

......9......8......7......6......5......4......3......2......1......0
Number of accepted tran steps =             190

Notice from spectre during transient analysis `transient7'.
    Trapezoidal ringing is detected during tran analysis.
        Please use method=trap for better results and performance.


Maximum value achieved for any signal of each quantity: 
V: V(nor10.2:Q) = 1.078 V
I: I(VGND:p) = 50.64 uA
If your circuit contains signals of the same quantity that are vastly different
        in size (such as high voltage circuitry combined with low voltage
        control circuitry), you should consider specifying global option
        `bin_relref=yes'.

~~~~~~~~~~~~~~~~~~~~~~~~~~~~~~~~~
Post-Transient Simulation Summary
~~~~~~~~~~~~~~~~~~~~~~~~~~~~~~~~~
   -   To further speed up simulation, consider
          add ++aps on command line
~~~~~~~~~~~~~~~~~~~~~~~~~~~~~~~~~


During simulation, the CPU load for active processors is :
         1 (13.8 %)      2 (100.0 %)     3 (15.4 %)      4 (1.3 %)
         5 (7.1 %)       6 (100.0 %)     7 (3.1 %)       8 (6.3 %)
         9 (11.0 %)     10 (1.4 %)      11 (2.3 %)      
        Total: 261.6%
Initial condition solution time: CPU = 5.332 ms, elapsed = 5.74613 ms.
Intrinsic tran analysis time:    CPU = 178.467 ms, elapsed = 288.518 ms.
Opening mt file: 
        /CASNFSHOME2/home/sstatthoudakis/Documents/spectre/Gates/NOR2/nor_validate/corners/corner_pin1/wire_load/nor_tt.mt6
Total time required for tran analysis `transient7': CPU = 187.557 ms, elapsed =
        310.584 ms, util. = 60.4%.
Time accumulated: CPU = 2.17602 s, elapsed = 5.64645 s.
Peak resident memory used = 140 Mbytes.


*************************
Alter Group `altergroup7'
*************************
Time for altergroup7: CPU = 8.256 ms, elapsed = 8.57401 ms.
Time accumulated: CPU = 2.18441 s, elapsed = 5.65633 s.
Peak resident memory used = 140 Mbytes.


*****************************************************
Transient Analysis `transient8': time = (0 s -> 2 ns)
*****************************************************
DC simulation time: CPU = 5.083 ms, elapsed = 5.08404 ms.

Notice from spectre during transient analysis `transient8'.
    No outputs were found. Loosening output filter criterion to `allpub'.


Opening the PSFXL file ./nor_tt.raw/transient8.tran.tran ...
Important parameter values:
    start = 0 s
    outputstart = 0 s
    stop = 2 ns
    step = 100 fs
    maxstep = 40 ps
    ic = all
    useprevic = no
    skipdc = no
    reltol = 1e-03
    abstol(V) = 1 uV
    abstol(I) = 1 pA
    temp = 50 C
    tnom = 27 C
    tempeffects = all
    errpreset = moderate
    method = traponly
    lteratio = 3.5
    relref = sigglobal
    cmin = 0 F
    gmin = 1 pS


Output and IC/nodeset summary:
                 probe  2       
                 save   3       (current)
                 save   165     (voltage)

......9......8......7......6......5....

Notice from spectre at time = 1.13433 ns during transient analysis
        `transient8'.
    Found trapezoidal ringing on node nor8.1:A.

......9......8......7......6......5.....

Notice from spectre at time = 1.155 ns during transient analysis `transient8'.
    Found trapezoidal ringing on node nor8.1:A.

......9......8......7......6......5......4......3......2......1......0
Number of accepted tran steps =             194

Notice from spectre during transient analysis `transient8'.
    Trapezoidal ringing is detected during tran analysis.
        Please use method=trap for better results and performance.


Maximum value achieved for any signal of each quantity: 
V: V(nor10.2:Q) = 1.072 V
I: I(VGND:p) = 48.43 uA
If your circuit contains signals of the same quantity that are vastly different
        in size (such as high voltage circuitry combined with low voltage
        control circuitry), you should consider specifying global option
        `bin_relref=yes'.

~~~~~~~~~~~~~~~~~~~~~~~~~~~~~~~~~
Post-Transient Simulation Summary
~~~~~~~~~~~~~~~~~~~~~~~~~~~~~~~~~
   -   To further speed up simulation, consider
          add ++aps on command line
~~~~~~~~~~~~~~~~~~~~~~~~~~~~~~~~~


During simulation, the CPU load for active processors is :
         1 (13.0 %)      2 (100.0 %)     3 (17.4 %)      4 (1.5 %)
         5 (6.6 %)       6 (100.0 %)     7 (2.8 %)       8 (5.9 %)
         9 (10.2 %)     10 (1.5 %)      11 (2.2 %)      
        Total: 261.1%
Initial condition solution time: CPU = 5.158 ms, elapsed = 5.45311 ms.
Intrinsic tran analysis time:    CPU = 158.359 ms, elapsed = 348.557 ms.
Opening mt file: 
        /CASNFSHOME2/home/sstatthoudakis/Documents/spectre/Gates/NOR2/nor_validate/corners/corner_pin1/wire_load/nor_tt.mt7
Total time required for tran analysis `transient8': CPU = 167.348 ms, elapsed =
        376.948 ms, util. = 44.4%.
Time accumulated: CPU = 2.35734 s, elapsed = 6.12528 s.
Peak resident memory used = 140 Mbytes.


*************************
Alter Group `altergroup8'
*************************
Time for altergroup8: CPU = 7.138 ms, elapsed = 7.67016 ms.
Time accumulated: CPU = 2.36461 s, elapsed = 6.13461 s.
Peak resident memory used = 140 Mbytes.


*****************************************************
Transient Analysis `transient9': time = (0 s -> 2 ns)
*****************************************************
DC simulation time: CPU = 4.862 ms, elapsed = 4.86398 ms.

Notice from spectre during transient analysis `transient9'.
    No outputs were found. Loosening output filter criterion to `allpub'.


Opening the PSFXL file ./nor_tt.raw/transient9.tran.tran ...
Important parameter values:
    start = 0 s
    outputstart = 0 s
    stop = 2 ns
    step = 100 fs
    maxstep = 40 ps
    ic = all
    useprevic = no
    skipdc = no
    reltol = 1e-03
    abstol(V) = 1 uV
    abstol(I) = 1 pA
    temp = 125 C
    tnom = 27 C
    tempeffects = all
    errpreset = moderate
    method = traponly
    lteratio = 3.5
    relref = sigglobal
    cmin = 0 F
    gmin = 1 pS


Output and IC/nodeset summary:
                 probe  2       
                 save   3       (current)
                 save   165     (voltage)

......9......8......7......6......5...

Notice from spectre at time = 1.12344 ns during transient analysis
        `transient9'.
    Found trapezoidal ringing on node nor9.1:Q.

......9......8......7......6......5....

Notice from spectre at time = 1.155 ns during transient analysis `transient9'.
    Found trapezoidal ringing on node nor9.1:Q.

......9......8......7......6......5......4......3......2......1......0
Number of accepted tran steps =             192

Notice from spectre during transient analysis `transient9'.
    Trapezoidal ringing is detected during tran analysis.
        Please use method=trap for better results and performance.


Maximum value achieved for any signal of each quantity: 
V: V(nor10.2:Q) = 1.063 V
I: I(VGND:p) = 44.87 uA
If your circuit contains signals of the same quantity that are vastly different
        in size (such as high voltage circuitry combined with low voltage
        control circuitry), you should consider specifying global option
        `bin_relref=yes'.

~~~~~~~~~~~~~~~~~~~~~~~~~~~~~~~~~
Post-Transient Simulation Summary
~~~~~~~~~~~~~~~~~~~~~~~~~~~~~~~~~
   -   To further speed up simulation, consider
          add ++aps on command line
~~~~~~~~~~~~~~~~~~~~~~~~~~~~~~~~~


During simulation, the CPU load for active processors is :
         1 (11.9 %)      2 (100.0 %)     3 (17.0 %)      4 (1.5 %)
         5 (7.4 %)       6 (100.0 %)     7 (2.6 %)       8 (5.3 %)
         9 (8.9 %)      10 (1.3 %)      11 (2.0 %)      
        Total: 258.3%
Initial condition solution time: CPU = 4.941 ms, elapsed = 5.2352 ms.
Intrinsic tran analysis time:    CPU = 150.541 ms, elapsed = 705.314 ms.
Opening mt file: 
        /CASNFSHOME2/home/sstatthoudakis/Documents/spectre/Gates/NOR2/nor_validate/corners/corner_pin1/wire_load/nor_tt.mt8
Total time required for tran analysis `transient9': CPU = 158.981 ms, elapsed =
        766.818 ms, util. = 20.7%.
Time accumulated: CPU = 2.52851 s, elapsed = 6.93488 s.
Peak resident memory used = 140 Mbytes.


*************************
Alter Group `altergroup9'
*************************
Time for altergroup9: CPU = 7.094 ms, elapsed = 7.49588 ms.
Time accumulated: CPU = 2.53573 s, elapsed = 6.94383 s.
Peak resident memory used = 140 Mbytes.


******************************************************
Transient Analysis `transient10': time = (0 s -> 2 ns)
******************************************************
DC simulation time: CPU = 4.696 ms, elapsed = 4.69804 ms.

Notice from spectre during transient analysis `transient10'.
    No outputs were found. Loosening output filter criterion to `allpub'.


Opening the PSFXL file ./nor_tt.raw/transient10.tran.tran ...
Important parameter values:
    start = 0 s
    outputstart = 0 s
    stop = 2 ns
    step = 100 fs
    maxstep = 40 ps
    ic = all
    useprevic = no
    skipdc = no
    reltol = 1e-03
    abstol(V) = 1 uV
    abstol(I) = 1 pA
    temp = 0 C
    tnom = 27 C
    tempeffects = all
    errpreset = moderate
    method = traponly
    lteratio = 3.5
    relref = sigglobal
    cmin = 0 F
    gmin = 1 pS


Output and IC/nodeset summary:
                 probe  2       
                 save   3       (current)
                 save   165     (voltage)

......9......8......7......6......5.

Notice from spectre at time = 1.07562 ns during transient analysis
        `transient10'.
    Found trapezoidal ringing on node VVDD:p.

......9......8......7......6......5...

Notice from spectre at time = 1.11562 ns during transient analysis
        `transient10'.
    Found trapezoidal ringing on node VVDD:p.

......9......8......7......6......5....

Notice from spectre at time = 1.155 ns during transient analysis
        `transient10'.
    Found trapezoidal ringing on node VVDD:p.

......9......8......7......6......5......4......3......2......1......0
Number of accepted tran steps =             198

Notice from spectre during transient analysis `transient10'.
    Trapezoidal ringing is detected during tran analysis.
        Please use method=trap for better results and performance.


Maximum value achieved for any signal of each quantity: 
V: V(nor10.2:Q) = 1.089 V
I: I(VGND:p) = 51.55 uA
If your circuit contains signals of the same quantity that are vastly different
        in size (such as high voltage circuitry combined with low voltage
        control circuitry), you should consider specifying global option
        `bin_relref=yes'.

~~~~~~~~~~~~~~~~~~~~~~~~~~~~~~~~~
Post-Transient Simulation Summary
~~~~~~~~~~~~~~~~~~~~~~~~~~~~~~~~~
   -   To further speed up simulation, consider
          add ++aps on command line
~~~~~~~~~~~~~~~~~~~~~~~~~~~~~~~~~


During simulation, the CPU load for active processors is :
         1 (11.3 %)      2 (100.0 %)     3 (16.2 %)      4 (1.7 %)
         5 (9.5 %)       6 (100.0 %)     7 (2.7 %)       8 (5.1 %)
         9 (8.5 %)      10 (1.4 %)      11 (2.0 %)      
        Total: 258.7%
Initial condition solution time: CPU = 4.768 ms, elapsed = 5.1918 ms.
Intrinsic tran analysis time:    CPU = 154.914 ms, elapsed = 223.942 ms.
Opening mt file: 
        /CASNFSHOME2/home/sstatthoudakis/Documents/spectre/Gates/NOR2/nor_validate/corners/corner_pin1/wire_load/nor_tt.mt9
Total time required for tran analysis `transient10': CPU = 163.055 ms, elapsed
        = 246.316 ms, util. = 66.2%.
Time accumulated: CPU = 2.70362 s, elapsed = 7.22731 s.
Peak resident memory used = 140 Mbytes.


**************************
Alter Group `altergroup10'
**************************
Time for altergroup10: CPU = 7.09 ms, elapsed = 7.45201 ms.
Time accumulated: CPU = 2.71082 s, elapsed = 7.23648 s.
Peak resident memory used = 140 Mbytes.


******************************************************
Transient Analysis `transient11': time = (0 s -> 2 ns)
******************************************************
DC simulation time: CPU = 4.385 ms, elapsed = 4.3869 ms.

Notice from spectre during transient analysis `transient11'.
    No outputs were found. Loosening output filter criterion to `allpub'.


Opening the PSFXL file ./nor_tt.raw/transient11.tran.tran ...
Important parameter values:
    start = 0 s
    outputstart = 0 s
    stop = 2 ns
    step = 100 fs
    maxstep = 40 ps
    ic = all
    useprevic = no
    skipdc = no
    reltol = 1e-03
    abstol(V) = 1 uV
    abstol(I) = 1 pA
    temp = 50 C
    tnom = 27 C
    tempeffects = all
    errpreset = moderate
    method = traponly
    lteratio = 3.5
    relref = sigglobal
    cmin = 0 F
    gmin = 1 pS


Output and IC/nodeset summary:
                 probe  2       
                 save   3       (current)
                 save   165     (voltage)

......9......8......7......6......5

Notice from spectre at time = 1.03984 ns during transient analysis
        `transient11'.
    Found trapezoidal ringing on node VVDD:p.

......9......8......7......6......5.

Notice from spectre at time = 1.07984 ns during transient analysis
        `transient11'.
    Found trapezoidal ringing on node VVDD:p.

......9......8......7......6......5...

Notice from spectre at time = 1.11984 ns during transient analysis
        `transient11'.
    Found trapezoidal ringing on node VVDD:p.

......9......8......7......6......5....

Notice from spectre at time = 1.155 ns during transient analysis
        `transient11'.
    Found trapezoidal ringing on node VVDD:p.

......9......8......7......6......5......4......3......2......1......0
Number of accepted tran steps =             191

Notice from spectre during transient analysis `transient11'.
    Trapezoidal ringing is detected during tran analysis.
        Please use method=trap for better results and performance.


Maximum value achieved for any signal of each quantity: 
V: V(nor10.1:Q) = 1.083 V
I: I(VGND:p) = 49.4 uA
If your circuit contains signals of the same quantity that are vastly different
        in size (such as high voltage circuitry combined with low voltage
        control circuitry), you should consider specifying global option
        `bin_relref=yes'.

~~~~~~~~~~~~~~~~~~~~~~~~~~~~~~~~~
Post-Transient Simulation Summary
~~~~~~~~~~~~~~~~~~~~~~~~~~~~~~~~~
   -   To further speed up simulation, consider
          add ++aps on command line
~~~~~~~~~~~~~~~~~~~~~~~~~~~~~~~~~


During simulation, the CPU load for active processors is :
         1 (11.1 %)      2 (100.0 %)     3 (15.6 %)      4 (1.7 %)
         5 (11.6 %)      6 (100.0 %)     7 (2.6 %)       8 (4.9 %)
         9 (8.2 %)      10 (1.5 %)      11 (1.9 %)      
        Total: 259.3%
Initial condition solution time: CPU = 4.455 ms, elapsed = 5.09691 ms.
Intrinsic tran analysis time:    CPU = 145.923 ms, elapsed = 235.782 ms.
Opening mt file: 
        /CASNFSHOME2/home/sstatthoudakis/Documents/spectre/Gates/NOR2/nor_validate/corners/corner_pin1/wire_load/nor_tt.mt10
Total time required for tran analysis `transient11': CPU = 154.111 ms, elapsed
        = 257.198 ms, util. = 59.9%.
Time accumulated: CPU = 2.86989 s, elapsed = 7.52559 s.
Peak resident memory used = 140 Mbytes.


**************************
Alter Group `altergroup11'
**************************
Time for altergroup11: CPU = 11.067 ms, elapsed = 11.3921 ms.
Time accumulated: CPU = 2.88109 s, elapsed = 7.53822 s.
Peak resident memory used = 140 Mbytes.


******************************************************
Transient Analysis `transient12': time = (0 s -> 2 ns)
******************************************************
DC simulation time: CPU = 4.396 ms, elapsed = 4.39811 ms.

Notice from spectre during transient analysis `transient12'.
    No outputs were found. Loosening output filter criterion to `allpub'.


Opening the PSFXL file ./nor_tt.raw/transient12.tran.tran ...
Important parameter values:
    start = 0 s
    outputstart = 0 s
    stop = 2 ns
    step = 100 fs
    maxstep = 40 ps
    ic = all
    useprevic = no
    skipdc = no
    reltol = 1e-03
    abstol(V) = 1 uV
    abstol(I) = 1 pA
    temp = 125 C
    tnom = 27 C
    tempeffects = all
    errpreset = moderate
    method = traponly
    lteratio = 3.5
    relref = sigglobal
    cmin = 0 F
    gmin = 1 pS


Output and IC/nodeset summary:
                 probe  2       
                 save   3       (current)
                 save   165     (voltage)

......9......8......7......6......5.

Notice from spectre at time = 1.07737 ns during transient analysis
        `transient12'.
    Found trapezoidal ringing on node VGND:p.

......9......8......7......6......5...

Notice from spectre at time = 1.11737 ns during transient analysis
        `transient12'.
    Found trapezoidal ringing on node VGND:p.

......9......8......7......6......5....

Notice from spectre at time = 1.155 ns during transient analysis
        `transient12'.
    Found trapezoidal ringing on node VGND:p.

......9......8......7......6......5......4......3......2......1......0
Number of accepted tran steps =             194

Notice from spectre during transient analysis `transient12'.
    Trapezoidal ringing is detected during tran analysis.
        Please use method=trap for better results and performance.


Maximum value achieved for any signal of each quantity: 
V: V(nor10.2:Q) = 1.076 V
I: I(VGND:p) = 46.98 uA
If your circuit contains signals of the same quantity that are vastly different
        in size (such as high voltage circuitry combined with low voltage
        control circuitry), you should consider specifying global option
        `bin_relref=yes'.

~~~~~~~~~~~~~~~~~~~~~~~~~~~~~~~~~
Post-Transient Simulation Summary
~~~~~~~~~~~~~~~~~~~~~~~~~~~~~~~~~
   -   To further speed up simulation, consider
          add ++aps on command line
~~~~~~~~~~~~~~~~~~~~~~~~~~~~~~~~~


During simulation, the CPU load for active processors is :
         1 (11.0 %)      2 (100.0 %)     3 (15.0 %)      4 (1.7 %)
         5 (13.5 %)      6 (100.0 %)     7 (2.5 %)       8 (4.7 %)
         9 (7.9 %)      10 (1.6 %)      11 (1.8 %)      
        Total: 259.8%
Initial condition solution time: CPU = 4.496 ms, elapsed = 4.93503 ms.
Intrinsic tran analysis time:    CPU = 147.288 ms, elapsed = 230.872 ms.
Opening mt file: 
        /CASNFSHOME2/home/sstatthoudakis/Documents/spectre/Gates/NOR2/nor_validate/corners/corner_pin1/wire_load/nor_tt.mt11
Total time required for tran analysis `transient12': CPU = 155.496 ms, elapsed
        = 252.025 ms, util. = 61.7%.
Time accumulated: CPU = 3.04175 s, elapsed = 7.82387 s.
Peak resident memory used = 140 Mbytes.


**************************
Alter Group `altergroup12'
**************************
Time for altergroup12: CPU = 6.761 ms, elapsed = 7.01189 ms.
Time accumulated: CPU = 3.04862 s, elapsed = 7.83201 s.
Peak resident memory used = 140 Mbytes.


******************************************************
Transient Analysis `transient13': time = (0 s -> 2 ns)
******************************************************
DC simulation time: CPU = 4.361 ms, elapsed = 4.36306 ms.

Notice from spectre during transient analysis `transient13'.
    No outputs were found. Loosening output filter criterion to `allpub'.


Opening the PSFXL file ./nor_tt.raw/transient13.tran.tran ...
Important parameter values:
    start = 0 s
    outputstart = 0 s
    stop = 2 ns
    step = 100 fs
    maxstep = 40 ps
    ic = all
    useprevic = no
    skipdc = no
    reltol = 1e-03
    abstol(V) = 1 uV
    abstol(I) = 1 pA
    temp = 0 C
    tnom = 27 C
    tempeffects = all
    errpreset = moderate
    method = traponly
    lteratio = 3.5
    relref = sigglobal
    cmin = 0 F
    gmin = 1 pS


Output and IC/nodeset summary:
                 probe  2       
                 save   3       (current)
                 save   165     (voltage)

......9......8......7......6.....

Notice from spectre at time = 986.88 ps during transient analysis
        `transient13'.
    Found trapezoidal ringing on node VVDD:p.

......9......8......7......6......5

Notice from spectre at time = 1.02688 ns during transient analysis
        `transient13'.
    Found trapezoidal ringing on node VVDD:p.

......9......8......7......6......5.

Notice from spectre at time = 1.06688 ns during transient analysis
        `transient13'.
    Found trapezoidal ringing on node VVDD:p.

......9......8......7......6......5..

Notice from spectre at time = 1.10688 ns during transient analysis
        `transient13'.
    Found trapezoidal ringing on node VVDD:p.

......9......8......7......6......5....

Notice from spectre at time = 1.13094 ns during transient analysis
        `transient13'.
    Found trapezoidal ringing on node VVDD:p.
        Further occurrences of this notice will be suppressed (except in log
        file).

......9......8......7......6......5......4......3......2......1......0
Number of accepted tran steps =             194

Notice from spectre during transient analysis `transient13'.
    Trapezoidal ringing is detected during tran analysis.
        Please use method=trap for better results and performance.


Maximum value achieved for any signal of each quantity: 
V: V(nor10.1:Q) = 1.099 V
I: I(VGND:p) = 52.44 uA
If your circuit contains signals of the same quantity that are vastly different
        in size (such as high voltage circuitry combined with low voltage
        control circuitry), you should consider specifying global option
        `bin_relref=yes'.

~~~~~~~~~~~~~~~~~~~~~~~~~~~~~~~~~
Post-Transient Simulation Summary
~~~~~~~~~~~~~~~~~~~~~~~~~~~~~~~~~
   -   To further speed up simulation, consider
          add ++aps on command line
~~~~~~~~~~~~~~~~~~~~~~~~~~~~~~~~~


During simulation, the CPU load for active processors is :
         0 (1.2 %)       1 (10.1 %)      2 (100.0 %)     3 (13.0 %)
         4 (1.8 %)       5 (12.8 %)      6 (100.0 %)     7 (2.9 %)
         8 (4.4 %)       9 (6.9 %)      10 (1.6 %)      11 (1.7 %)
        Total: 256.4%
Initial condition solution time: CPU = 4.432 ms, elapsed = 4.86684 ms.
Intrinsic tran analysis time:    CPU = 164.515 ms, elapsed = 1.12314 s.
Opening mt file: 
        /CASNFSHOME2/home/sstatthoudakis/Documents/spectre/Gates/NOR2/nor_validate/corners/corner_pin1/wire_load/nor_tt.mt12
Total time required for tran analysis `transient13': CPU = 172.579 ms, elapsed
        = 1.19859 s, util. = 14.4%.
Time accumulated: CPU = 3.22622 s, elapsed = 9.06262 s.
Peak resident memory used = 140 Mbytes.


Notice from spectre.
    1 notice suppressed.


**************************
Alter Group `altergroup13'
**************************
Time for altergroup13: CPU = 7.058 ms, elapsed = 7.79796 ms.
Time accumulated: CPU = 3.23339 s, elapsed = 9.07146 s.
Peak resident memory used = 140 Mbytes.


******************************************************
Transient Analysis `transient14': time = (0 s -> 2 ns)
******************************************************
DC simulation time: CPU = 4.304 ms, elapsed = 4.30608 ms.

Notice from spectre during transient analysis `transient14'.
    No outputs were found. Loosening output filter criterion to `allpub'.


Opening the PSFXL file ./nor_tt.raw/transient14.tran.tran ...
Important parameter values:
    start = 0 s
    outputstart = 0 s
    stop = 2 ns
    step = 100 fs
    maxstep = 40 ps
    ic = all
    useprevic = no
    skipdc = no
    reltol = 1e-03
    abstol(V) = 1 uV
    abstol(I) = 1 pA
    temp = 50 C
    tnom = 27 C
    tempeffects = all
    errpreset = moderate
    method = traponly
    lteratio = 3.5
    relref = sigglobal
    cmin = 0 F
    gmin = 1 pS


Output and IC/nodeset summary:
                 probe  2       
                 save   3       (current)
                 save   165     (voltage)

......9......8......7......6......

Notice from spectre at time = 1.02174 ns during transient analysis
        `transient14'.
    Found trapezoidal ringing on node VVDD:p.

......9......8......7......6......5.

Notice from spectre at time = 1.06174 ns during transient analysis
        `transient14'.
    Found trapezoidal ringing on node VVDD:p.

......9......8......7......6......5..

Notice from spectre at time = 1.10174 ns during transient analysis
        `transient14'.
    Found trapezoidal ringing on node VVDD:p.

......9......8......7......6......5....

Notice from spectre at time = 1.12837 ns during transient analysis
        `transient14'.
    Found trapezoidal ringing on node VVDD:p.
Notice from spectre at time = 1.155 ns during transient analysis
        `transient14'.
    Found trapezoidal ringing on node VVDD:p.
        Further occurrences of this notice will be suppressed (except in log
        file).

......9......8......7......6......5......4......3......2......1......0
Number of accepted tran steps =             191

Notice from spectre during transient analysis `transient14'.
    Trapezoidal ringing is detected during tran analysis.
        Please use method=trap for better results and performance.


Maximum value achieved for any signal of each quantity: 
V: V(nor10.1:Q) = 1.093 V
I: I(VGND:p) = 50.3 uA
If your circuit contains signals of the same quantity that are vastly different
        in size (such as high voltage circuitry combined with low voltage
        control circuitry), you should consider specifying global option
        `bin_relref=yes'.

~~~~~~~~~~~~~~~~~~~~~~~~~~~~~~~~~
Post-Transient Simulation Summary
~~~~~~~~~~~~~~~~~~~~~~~~~~~~~~~~~
   -   To further speed up simulation, consider
          add ++aps on command line
~~~~~~~~~~~~~~~~~~~~~~~~~~~~~~~~~


During simulation, the CPU load for active processors is :
         0 (1.2 %)       1 (9.7 %)       2 (100.0 %)     3 (12.5 %)
         4 (1.8 %)       5 (14.3 %)      6 (100.0 %)     7 (3.0 %)
         8 (4.2 %)       9 (6.7 %)      10 (1.5 %)      11 (1.7 %)
        Total: 256.7%
Initial condition solution time: CPU = 4.37 ms, elapsed = 4.80485 ms.
Intrinsic tran analysis time:    CPU = 144.286 ms, elapsed = 243.573 ms.
Opening mt file: 
        /CASNFSHOME2/home/sstatthoudakis/Documents/spectre/Gates/NOR2/nor_validate/corners/corner_pin1/wire_load/nor_tt.mt13
Total time required for tran analysis `transient14': CPU = 151.87 ms, elapsed =
        263.932 ms, util. = 57.5%.
Time accumulated: CPU = 3.39023 s, elapsed = 9.36717 s.
Peak resident memory used = 140 Mbytes.


**************************
Alter Group `altergroup14'
**************************
Time for altergroup14: CPU = 6.931 ms, elapsed = 7.17378 ms.
Time accumulated: CPU = 3.39728 s, elapsed = 9.37539 s.
Peak resident memory used = 140 Mbytes.


******************************************************
Transient Analysis `transient15': time = (0 s -> 2 ns)
******************************************************
DC simulation time: CPU = 4.37 ms, elapsed = 4.37093 ms.

Notice from spectre during transient analysis `transient15'.
    No outputs were found. Loosening output filter criterion to `allpub'.


Opening the PSFXL file ./nor_tt.raw/transient15.tran.tran ...
Important parameter values:
    start = 0 s
    outputstart = 0 s
    stop = 2 ns
    step = 100 fs
    maxstep = 40 ps
    ic = all
    useprevic = no
    skipdc = no
    reltol = 1e-03
    abstol(V) = 1 uV
    abstol(I) = 1 pA
    temp = 125 C
    tnom = 27 C
    tempeffects = all
    errpreset = moderate
    method = traponly
    lteratio = 3.5
    relref = sigglobal
    cmin = 0 F
    gmin = 1 pS


Output and IC/nodeset summary:
                 probe  2       
                 save   3       (current)
                 save   165     (voltage)

......9......8......7......6......5.

Notice from spectre at time = 1.06008 ns during transient analysis
        `transient15'.
    Found trapezoidal ringing on node VVDD:p.

......9......8......7......6......5..

Notice from spectre at time = 1.10008 ns during transient analysis
        `transient15'.
    Found trapezoidal ringing on node VVDD:p.

......9......8......7......6......5....

Notice from spectre at time = 1.12754 ns during transient analysis
        `transient15'.
    Found trapezoidal ringing on node VVDD:p.
Notice from spectre at time = 1.155 ns during transient analysis
        `transient15'.
    Found trapezoidal ringing on node VVDD:p.

......9......8......7......6......5......4......3......2......1......0
Number of accepted tran steps =             189

Notice from spectre during transient analysis `transient15'.
    Trapezoidal ringing is detected during tran analysis.
        Please use method=trap for better results and performance.


Maximum value achieved for any signal of each quantity: 
V: V(nor10.2:Q) = 1.086 V
I: I(VGND:p) = 47.74 uA
If your circuit contains signals of the same quantity that are vastly different
        in size (such as high voltage circuitry combined with low voltage
        control circuitry), you should consider specifying global option
        `bin_relref=yes'.

~~~~~~~~~~~~~~~~~~~~~~~~~~~~~~~~~
Post-Transient Simulation Summary
~~~~~~~~~~~~~~~~~~~~~~~~~~~~~~~~~
   -   To further speed up simulation, consider
          add ++aps on command line
~~~~~~~~~~~~~~~~~~~~~~~~~~~~~~~~~


During simulation, the CPU load for active processors is :
         0 (1.1 %)       1 (9.4 %)       2 (100.0 %)     3 (12.1 %)
         4 (1.8 %)       5 (15.7 %)      6 (100.0 %)     7 (3.4 %)
         8 (4.1 %)       9 (6.5 %)      10 (1.6 %)      11 (1.7 %)
        Total: 257.3%
Initial condition solution time: CPU = 4.436 ms, elapsed = 4.76098 ms.
Intrinsic tran analysis time:    CPU = 139.743 ms, elapsed = 227.18 ms.
Opening mt file: 
        /CASNFSHOME2/home/sstatthoudakis/Documents/spectre/Gates/NOR2/nor_validate/corners/corner_pin1/wire_load/nor_tt.mt14
Total time required for tran analysis `transient15': CPU = 147.415 ms, elapsed
        = 247.009 ms, util. = 59.7%.
Time accumulated: CPU = 3.54983 s, elapsed = 9.65361 s.
Peak resident memory used = 140 Mbytes.


**************************
Alter Group `altergroup15'
**************************
Time for altergroup15: CPU = 7.647 ms, elapsed = 8.03709 ms.
Time accumulated: CPU = 3.5576 s, elapsed = 9.66327 s.
Peak resident memory used = 140 Mbytes.


******************************************************
Transient Analysis `transient16': time = (0 s -> 2 ns)
******************************************************
DC simulation time: CPU = 4.644 ms, elapsed = 4.64606 ms.

Notice from spectre during transient analysis `transient16'.
    No outputs were found. Loosening output filter criterion to `allpub'.


Opening the PSFXL file ./nor_tt.raw/transient16.tran.tran ...
Important parameter values:
    start = 0 s
    outputstart = 0 s
    stop = 2 ns
    step = 100 fs
    maxstep = 40 ps
    ic = all
    useprevic = no
    skipdc = no
    reltol = 1e-03
    abstol(V) = 1 uV
    abstol(I) = 1 pA
    temp = 0 C
    tnom = 27 C
    tempeffects = all
    errpreset = moderate
    method = traponly
    lteratio = 3.5
    relref = sigglobal
    cmin = 0 F
    gmin = 1 pS


Output and IC/nodeset summary:
                 probe  2       
                 save   3       (current)
                 save   165     (voltage)

......9......8......7......6......

Notice from spectre at time = 1.01508 ns during transient analysis
        `transient16'.
    Found trapezoidal ringing on node VVDD:p.

......9......8......7......6......5.

Notice from spectre at time = 1.05508 ns during transient analysis
        `transient16'.
    Found trapezoidal ringing on node VVDD:p.

......9......8......7......6......5..

Notice from spectre at time = 1.09508 ns during transient analysis
        `transient16'.
    Found trapezoidal ringing on node VVDD:p.

......9......8......7......6......5...

Notice from spectre at time = 1.12504 ns during transient analysis
        `transient16'.
    Found trapezoidal ringing on node VVDD:p.

......9......8......7......6......5....

Notice from spectre at time = 1.155 ns during transient analysis
        `transient16'.
    Found trapezoidal ringing on node VVDD:p.
        Further occurrences of this notice will be suppressed (except in log
        file).

......9......8......7......6......5......4......3......2......1......0
Number of accepted tran steps =             196

Notice from spectre during transient analysis `transient16'.
    Trapezoidal ringing is detected during tran analysis.
        Please use method=trap for better results and performance.


Maximum value achieved for any signal of each quantity: 
V: V(nor10.2:Q) = 1.109 V
I: I(VGND:p) = 53.34 uA
If your circuit contains signals of the same quantity that are vastly different
        in size (such as high voltage circuitry combined with low voltage
        control circuitry), you should consider specifying global option
        `bin_relref=yes'.

~~~~~~~~~~~~~~~~~~~~~~~~~~~~~~~~~
Post-Transient Simulation Summary
~~~~~~~~~~~~~~~~~~~~~~~~~~~~~~~~~
   -   To further speed up simulation, consider
          add ++aps on command line
~~~~~~~~~~~~~~~~~~~~~~~~~~~~~~~~~


During simulation, the CPU load for active processors is :
         0 (1.7 %)       1 (9.0 %)       2 (100.0 %)     3 (11.4 %)
         4 (1.7 %)       5 (16.3 %)      6 (100.0 %)     7 (3.4 %)
         8 (4.7 %)       9 (6.2 %)      10 (1.5 %)      11 (1.6 %)
        Total: 257.4%
Initial condition solution time: CPU = 4.717 ms, elapsed = 5.00703 ms.
Intrinsic tran analysis time:    CPU = 186.725 ms, elapsed = 519.955 ms.
Opening mt file: 
        /CASNFSHOME2/home/sstatthoudakis/Documents/spectre/Gates/NOR2/nor_validate/corners/corner_pin1/wire_load/nor_tt.mt15
Total time required for tran analysis `transient16': CPU = 195.319 ms, elapsed
        = 579.591 ms, util. = 33.7%.
Time accumulated: CPU = 3.75903 s, elapsed = 10.3199 s.
Peak resident memory used = 140 Mbytes.


**************************
Alter Group `altergroup16'
**************************
Time for altergroup16: CPU = 8.278 ms, elapsed = 8.816 ms.
Time accumulated: CPU = 3.76744 s, elapsed = 10.3307 s.
Peak resident memory used = 140 Mbytes.


******************************************************
Transient Analysis `transient17': time = (0 s -> 2 ns)
******************************************************
DC simulation time: CPU = 5.151 ms, elapsed = 5.15199 ms.

Notice from spectre during transient analysis `transient17'.
    No outputs were found. Loosening output filter criterion to `allpub'.


Opening the PSFXL file ./nor_tt.raw/transient17.tran.tran ...
Important parameter values:
    start = 0 s
    outputstart = 0 s
    stop = 2 ns
    step = 100 fs
    maxstep = 40 ps
    ic = all
    useprevic = no
    skipdc = no
    reltol = 1e-03
    abstol(V) = 1 uV
    abstol(I) = 1 pA
    temp = 50 C
    tnom = 27 C
    tempeffects = all
    errpreset = moderate
    method = traponly
    lteratio = 3.5
    relref = sigglobal
    cmin = 0 F
    gmin = 1 pS


Output and IC/nodeset summary:
                 probe  2       
                 save   3       (current)
                 save   165     (voltage)

......9......8......7......6......5

Notice from spectre at time = 1.04542 ns during transient analysis
        `transient17'.
    Found trapezoidal ringing on node VGND:p.

......9......8......7......6......5..

Notice from spectre at time = 1.08542 ns during transient analysis
        `transient17'.
    Found trapezoidal ringing on node VGND:p.

......9......8......7......6......5...

Notice from spectre at time = 1.12542 ns during transient analysis
        `transient17'.
    Found trapezoidal ringing on node VGND:p.

......9......8......7......6......5....

Notice from spectre at time = 1.155 ns during transient analysis
        `transient17'.
    Found trapezoidal ringing on node VGND:p.

......9......8......7......6......5......4......3......2......1......0
Number of accepted tran steps =             188

Notice from spectre during transient analysis `transient17'.
    Trapezoidal ringing is detected during tran analysis.
        Please use method=trap for better results and performance.


Maximum value achieved for any signal of each quantity: 
V: V(nor10.2:Q) = 1.102 V
I: I(VGND:p) = 51.15 uA
If your circuit contains signals of the same quantity that are vastly different
        in size (such as high voltage circuitry combined with low voltage
        control circuitry), you should consider specifying global option
        `bin_relref=yes'.

~~~~~~~~~~~~~~~~~~~~~~~~~~~~~~~~~
Post-Transient Simulation Summary
~~~~~~~~~~~~~~~~~~~~~~~~~~~~~~~~~
   -   To further speed up simulation, consider
          add ++aps on command line
~~~~~~~~~~~~~~~~~~~~~~~~~~~~~~~~~


During simulation, the CPU load for active processors is :
         0 (1.6 %)       1 (8.4 %)       2 (100.0 %)     3 (10.8 %)
         4 (1.6 %)       5 (15.4 %)      6 (100.0 %)     7 (3.3 %)
         8 (6.2 %)       9 (5.8 %)      10 (1.4 %)      11 (2.2 %)
        Total: 256.8%
Initial condition solution time: CPU = 5.262 ms, elapsed = 9.76992 ms.
Intrinsic tran analysis time:    CPU = 172.162 ms, elapsed = 485.05 ms.
Opening mt file: 
        /CASNFSHOME2/home/sstatthoudakis/Documents/spectre/Gates/NOR2/nor_validate/corners/corner_pin1/wire_load/nor_tt.mt16
Total time required for tran analysis `transient17': CPU = 181.119 ms, elapsed
        = 554.739 ms, util. = 32.6%.
Time accumulated: CPU = 3.95788 s, elapsed = 10.9329 s.
Peak resident memory used = 140 Mbytes.


**************************
Alter Group `altergroup17'
**************************
Time for altergroup17: CPU = 13.701 ms, elapsed = 14.075 ms.
Time accumulated: CPU = 3.97188 s, elapsed = 10.9486 s.
Peak resident memory used = 140 Mbytes.


******************************************************
Transient Analysis `transient18': time = (0 s -> 2 ns)
******************************************************
DC simulation time: CPU = 5.054 ms, elapsed = 5.05614 ms.

Notice from spectre during transient analysis `transient18'.
    No outputs were found. Loosening output filter criterion to `allpub'.


Opening the PSFXL file ./nor_tt.raw/transient18.tran.tran ...
Important parameter values:
    start = 0 s
    outputstart = 0 s
    stop = 2 ns
    step = 100 fs
    maxstep = 40 ps
    ic = all
    useprevic = no
    skipdc = no
    reltol = 1e-03
    abstol(V) = 1 uV
    abstol(I) = 1 pA
    temp = 125 C
    tnom = 27 C
    tempeffects = all
    errpreset = moderate
    method = traponly
    lteratio = 3.5
    relref = sigglobal
    cmin = 0 F
    gmin = 1 pS


Output and IC/nodeset summary:
                 probe  2       
                 save   3       (current)
                 save   165     (voltage)

......9......8......7......6....

Notice from spectre at time = 968.093 ps during transient analysis
        `transient18'.
    Found trapezoidal ringing on node VGND:p.

......9......8......7......6......

Notice from spectre at time = 1.00809 ns during transient analysis
        `transient18'.
    Found trapezoidal ringing on node VGND:p.

......9......8......7......6......5

Notice from spectre at time = 1.04809 ns during transient analysis
        `transient18'.
    Found trapezoidal ringing on node VGND:p.

......9......8......7......6......5..

Notice from spectre at time = 1.08809 ns during transient analysis
        `transient18'.
    Found trapezoidal ringing on node VGND:p.

......9......8......7......6......5...

Notice from spectre at time = 1.12809 ns during transient analysis
        `transient18'.
    Found trapezoidal ringing on node VVDD:p.
        Further occurrences of this notice will be suppressed (except in log
        file).

......9......8......7......6......5......4......3......2......1......0
Number of accepted tran steps =             197

Notice from spectre during transient analysis `transient18'.
    Trapezoidal ringing is detected during tran analysis.
        Please use method=trap for better results and performance.


Maximum value achieved for any signal of each quantity: 
V: V(nor10.2:Q) = 1.097 V
I: I(VGND:p) = 48.41 uA
If your circuit contains signals of the same quantity that are vastly different
        in size (such as high voltage circuitry combined with low voltage
        control circuitry), you should consider specifying global option
        `bin_relref=yes'.

~~~~~~~~~~~~~~~~~~~~~~~~~~~~~~~~~
Post-Transient Simulation Summary
~~~~~~~~~~~~~~~~~~~~~~~~~~~~~~~~~
   -   To further speed up simulation, consider
          add ++aps on command line
~~~~~~~~~~~~~~~~~~~~~~~~~~~~~~~~~


During simulation, the CPU load for active processors is :
         0 (1.5 %)       1 (8.1 %)       2 (100.0 %)     3 (10.5 %)
         4 (1.6 %)       5 (15.0 %)      6 (100.0 %)     7 (3.2 %)
         8 (8.1 %)       9 (5.6 %)      10 (1.4 %)      11 (2.1 %)
        Total: 257.2%
Initial condition solution time: CPU = 5.133 ms, elapsed = 5.60093 ms.
Intrinsic tran analysis time:    CPU = 180.85 ms, elapsed = 281.694 ms.
Opening mt file: 
        /CASNFSHOME2/home/sstatthoudakis/Documents/spectre/Gates/NOR2/nor_validate/corners/corner_pin1/wire_load/nor_tt.mt17
Total time required for tran analysis `transient18': CPU = 189.465 ms, elapsed
        = 303.187 ms, util. = 62.5%.
Time accumulated: CPU = 4.16938 s, elapsed = 11.2886 s.
Peak resident memory used = 140 Mbytes.


Notice from spectre.
    1 notice suppressed.


**************************
Alter Group `altergroup18'
**************************
Time for altergroup18: CPU = 15.635 ms, elapsed = 16.8271 ms.
Time accumulated: CPU = 4.18534 s, elapsed = 11.307 s.
Peak resident memory used = 140 Mbytes.


******************************************************
Transient Analysis `transient19': time = (0 s -> 2 ns)
******************************************************
DC simulation time: CPU = 4.914 ms, elapsed = 4.915 ms.

Notice from spectre during transient analysis `transient19'.
    No outputs were found. Loosening output filter criterion to `allpub'.


Opening the PSFXL file ./nor_tt.raw/transient19.tran.tran ...
Important parameter values:
    start = 0 s
    outputstart = 0 s
    stop = 2 ns
    step = 100 fs
    maxstep = 40 ps
    ic = all
    useprevic = no
    skipdc = no
    reltol = 1e-03
    abstol(V) = 1 uV
    abstol(I) = 1 pA
    temp = 0 C
    tnom = 27 C
    tempeffects = all
    errpreset = moderate
    method = traponly
    lteratio = 3.5
    relref = sigglobal
    cmin = 0 F
    gmin = 1 pS


Output and IC/nodeset summary:
                 probe  2       
                 save   3       (current)
                 save   165     (voltage)

......9......8......7......6......5.

Notice from spectre at time = 1.07753 ns during transient analysis
        `transient19'.
    Found trapezoidal ringing on node nor10.3:A.

......9......8......7......6......5...

Notice from spectre at time = 1.11753 ns during transient analysis
        `transient19'.
    Found trapezoidal ringing on node nor10.1:B.

......9......8......7......6......5....

Notice from spectre at time = 1.155 ns during transient analysis
        `transient19'.
    Found trapezoidal ringing on node nor10.1:B.

......9......8......7......6......5......4......3......2......1......0
Number of accepted tran steps =             201

Notice from spectre during transient analysis `transient19'.
    Trapezoidal ringing is detected during tran analysis.
        Please use method=trap for better results and performance.


Maximum value achieved for any signal of each quantity: 
V: V(nor10.1:Q) = 1.12 V
I: I(VGND:p) = 53.93 uA
If your circuit contains signals of the same quantity that are vastly different
        in size (such as high voltage circuitry combined with low voltage
[...]
Alter Group `altergroup142'
***************************
Time for altergroup142: CPU = 7.751 ms, elapsed = 9.00292 ms.
Time accumulated: CPU = 26.0909 s, elapsed = 67.3837 s (1m  7.4s).
Peak resident memory used = 143 Mbytes.


*******************************************************
Transient Analysis `transient143': time = (0 s -> 2 ns)
*******************************************************
DC simulation time: CPU = 5.189 ms, elapsed = 5.1899 ms.

Notice from spectre during transient analysis `transient143'.
    No outputs were found. Loosening output filter criterion to `allpub'.


Opening the PSFXL file ./nor_tt.raw/transient143.tran.tran ...
Important parameter values:
    start = 0 s
    outputstart = 0 s
    stop = 2 ns
    step = 100 fs
    maxstep = 40 ps
    ic = all
    useprevic = no
    skipdc = no
    reltol = 1e-03
    abstol(V) = 1 uV
    abstol(I) = 1 pA
    temp = 50 C
    tnom = 27 C
    tempeffects = all
    errpreset = moderate
    method = traponly
    lteratio = 3.5
    relref = sigglobal
    cmin = 0 F
    gmin = 1 pS


Output and IC/nodeset summary:
                 probe  2       
                 save   3       (current)
                 save   165     (voltage)

......9......8......

Notice from spectre at time = 607.33 ps during transient analysis
        `transient143'.
    Found trapezoidal ringing on node VGND:p.

......9......8......7

Notice from spectre at time = 647.33 ps during transient analysis
        `transient143'.
    Found trapezoidal ringing on node VGND:p.

......9......8......7..

Notice from spectre at time = 687.33 ps during transient analysis
        `transient143'.
    Found trapezoidal ringing on node VGND:p.

......9......8......7...

Notice from spectre at time = 727.33 ps during transient analysis
        `transient143'.
    Found trapezoidal ringing on node VGND:p.

......9......8......7....

Notice from spectre at time = 767.33 ps during transient analysis
        `transient143'.
    Found trapezoidal ringing on node VGND:p.
        Further occurrences of this notice will be suppressed (except in log
        file).

......9......8......7......6......5......4......3......2......1......0
Number of accepted tran steps =             198

Notice from spectre during transient analysis `transient143'.
    Trapezoidal ringing is detected during tran analysis.
        Please use method=trap for better results and performance.


Maximum value achieved for any signal of each quantity: 
V: V(nor10.2:Q) = 1.555 V
I: I(VGND:p) = 114.9 uA
If your circuit contains signals of the same quantity that are vastly different
        in size (such as high voltage circuitry combined with low voltage
        control circuitry), you should consider specifying global option
        `bin_relref=yes'.

~~~~~~~~~~~~~~~~~~~~~~~~~~~~~~~~~
Post-Transient Simulation Summary
~~~~~~~~~~~~~~~~~~~~~~~~~~~~~~~~~
   -   To further speed up simulation, consider
          add ++aps on command line
~~~~~~~~~~~~~~~~~~~~~~~~~~~~~~~~~


During simulation, the CPU load for active processors is :
         0 (3.3 %)       1 (11.5 %)      2 (81.8 %)      3 (28.2 %)
         4 (8.8 %)       5 (11.2 %)      6 (100.0 %)     7 (4.3 %)
         8 (5.5 %)       9 (3.3 %)      10 (1.6 %)      11 (1.9 %)
        Total: 261.4%
Initial condition solution time: CPU = 5.254 ms, elapsed = 5.934 ms.
Intrinsic tran analysis time:    CPU = 154.364 ms, elapsed = 421.345 ms.
Opening mt file: 
        /CASNFSHOME2/home/sstatthoudakis/Documents/spectre/Gates/NOR2/nor_validate/corners/corner_pin1/wire_load/nor_tt.mt142
Total time required for tran analysis `transient143': CPU = 162.695 ms, elapsed
        = 466.363 ms, util. = 34.9%.
Time accumulated: CPU = 26.2592 s, elapsed = 67.9879 s (1m  8.0s).
Peak resident memory used = 143 Mbytes.


Notice from spectre.
    17 notices suppressed.


***************************
Alter Group `altergroup143'
***************************
Time for altergroup143: CPU = 8.185 ms, elapsed = 9.07397 ms.
Time accumulated: CPU = 26.2675 s, elapsed = 67.998 s (1m  8.0s).
Peak resident memory used = 143 Mbytes.


*******************************************************
Transient Analysis `transient144': time = (0 s -> 2 ns)
*******************************************************
DC simulation time: CPU = 5.481 ms, elapsed = 5.48315 ms.

Notice from spectre during transient analysis `transient144'.
    No outputs were found. Loosening output filter criterion to `allpub'.


Opening the PSFXL file ./nor_tt.raw/transient144.tran.tran ...
Important parameter values:
    start = 0 s
    outputstart = 0 s
    stop = 2 ns
    step = 100 fs
    maxstep = 40 ps
    ic = all
    useprevic = no
    skipdc = no
    reltol = 1e-03
    abstol(V) = 1 uV
    abstol(I) = 1 pA
    temp = 125 C
    tnom = 27 C
    tempeffects = all
    errpreset = moderate
    method = traponly
    lteratio = 3.5
    relref = sigglobal
    cmin = 0 F
    gmin = 1 pS


Output and IC/nodeset summary:
                 probe  2       
                 save   3       (current)
                 save   165     (voltage)

......9......8......7

Notice from spectre at time = 633.214 ps during transient analysis
        `transient144'.
    Found trapezoidal ringing on node VGND:p.

......9......8......7.

Notice from spectre at time = 673.214 ps during transient analysis
        `transient144'.
    Found trapezoidal ringing on node VGND:p.

......9......8......7...

Notice from spectre at time = 713.214 ps during transient analysis
        `transient144'.
    Found trapezoidal ringing on node VGND:p.

......9......8......7....

Notice from spectre at time = 753.214 ps during transient analysis
        `transient144'.
    Found trapezoidal ringing on node VGND:p.

......9......8......7.....

Notice from spectre at time = 793.214 ps during transient analysis
        `transient144'.
    Found trapezoidal ringing on node VGND:p.
        Further occurrences of this notice will be suppressed (except in log
        file).

......9......8......7......6......5......4......3......2......1......0
Number of accepted tran steps =             191

Notice from spectre during transient analysis `transient144'.
    Trapezoidal ringing is detected during tran analysis.
        Please use method=trap for better results and performance.


Maximum value achieved for any signal of each quantity: 
V: V(nor10.1:Q) = 1.545 V
I: I(VGND:p) = 109.5 uA
If your circuit contains signals of the same quantity that are vastly different
        in size (such as high voltage circuitry combined with low voltage
        control circuitry), you should consider specifying global option
        `bin_relref=yes'.

~~~~~~~~~~~~~~~~~~~~~~~~~~~~~~~~~
Post-Transient Simulation Summary
~~~~~~~~~~~~~~~~~~~~~~~~~~~~~~~~~
   -   To further speed up simulation, consider
          add ++aps on command line
~~~~~~~~~~~~~~~~~~~~~~~~~~~~~~~~~


During simulation, the CPU load for active processors is :
         0 (3.5 %)       1 (11.4 %)      2 (81.3 %)      3 (28.7 %)
         4 (8.7 %)       5 (11.2 %)      6 (100.0 %)     7 (4.3 %)
         8 (5.5 %)       9 (3.3 %)      10 (1.6 %)      11 (1.9 %)
        Total: 261.4%
Initial condition solution time: CPU = 5.561 ms, elapsed = 6.25992 ms.
Intrinsic tran analysis time:    CPU = 137.531 ms, elapsed = 249.901 ms.
Opening mt file: 
        /CASNFSHOME2/home/sstatthoudakis/Documents/spectre/Gates/NOR2/nor_validate/corners/corner_pin1/wire_load/nor_tt.mt143
Total time required for tran analysis `transient144': CPU = 146.193 ms, elapsed
        = 275.733 ms, util. = 53%.
Time accumulated: CPU = 26.4186 s, elapsed = 68.317 s (1m  8.3s).
Peak resident memory used = 143 Mbytes.


Notice from spectre.
    12 notices suppressed.


***************************
Alter Group `altergroup144'
***************************
Time for altergroup144: CPU = 7.778 ms, elapsed = 9.06396 ms.
Time accumulated: CPU = 26.4265 s, elapsed = 68.3277 s (1m  8.3s).
Peak resident memory used = 143 Mbytes.


*******************************************************
Transient Analysis `transient145': time = (0 s -> 2 ns)
*******************************************************
DC simulation time: CPU = 11.484 ms, elapsed = 11.487 ms.

Notice from spectre during transient analysis `transient145'.
    No outputs were found. Loosening output filter criterion to `allpub'.


Opening the PSFXL file ./nor_tt.raw/transient145.tran.tran ...
Important parameter values:
    start = 0 s
    outputstart = 0 s
    stop = 2 ns
    step = 100 fs
    maxstep = 40 ps
    ic = all
    useprevic = no
    skipdc = no
    reltol = 1e-03
    abstol(V) = 1 uV
    abstol(I) = 1 pA
    temp = 0 C
    tnom = 27 C
    tempeffects = all
    errpreset = moderate
    method = traponly
    lteratio = 3.5
    relref = sigglobal
    cmin = 0 F
    gmin = 1 pS


Output and IC/nodeset summary:
                 probe  2       
                 save   3       (current)
                 save   165     (voltage)

......9......8.....

Notice from spectre at time = 594.793 ps during transient analysis
        `transient145'.
    Found trapezoidal ringing on node VVDD:p.

......9......8......7

Notice from spectre at time = 634.793 ps during transient analysis
        `transient145'.
    Found trapezoidal ringing on node VVDD:p.

......9......8......7.

Notice from spectre at time = 674.793 ps during transient analysis
        `transient145'.
    Found trapezoidal ringing on node VVDD:p.

......9......8......7...

Notice from spectre at time = 714.793 ps during transient analysis
        `transient145'.
    Found trapezoidal ringing on node VVDD:p.

......9......8......7....

Notice from spectre at time = 754.793 ps during transient analysis
        `transient145'.
    Found trapezoidal ringing on node VVDD:p.
        Further occurrences of this notice will be suppressed (except in log
        file).

......9......8......7......6......5......4......3......2......1......0
Number of accepted tran steps =             200

Notice from spectre during transient analysis `transient145'.
    Trapezoidal ringing is detected during tran analysis.
        Please use method=trap for better results and performance.


Maximum value achieved for any signal of each quantity: 
V: V(nor10.2:Q) = 1.571 V
I: I(VVDD:p) = 122.2 uA
If your circuit contains signals of the same quantity that are vastly different
        in size (such as high voltage circuitry combined with low voltage
        control circuitry), you should consider specifying global option
        `bin_relref=yes'.

~~~~~~~~~~~~~~~~~~~~~~~~~~~~~~~~~
Post-Transient Simulation Summary
~~~~~~~~~~~~~~~~~~~~~~~~~~~~~~~~~
   -   To further speed up simulation, consider
          add ++aps on command line
~~~~~~~~~~~~~~~~~~~~~~~~~~~~~~~~~


During simulation, the CPU load for active processors is :
         0 (3.8 %)       1 (11.4 %)      2 (80.8 %)      3 (29.0 %)
         4 (8.8 %)       5 (11.1 %)      6 (100.0 %)     7 (4.3 %)
         8 (5.5 %)       9 (3.3 %)      10 (1.6 %)      11 (1.9 %)
        Total: 261.5%
Initial condition solution time: CPU = 11.6 ms, elapsed = 12.223 ms.
Intrinsic tran analysis time:    CPU = 163.718 ms, elapsed = 267.981 ms.
Opening mt file: 
        /CASNFSHOME2/home/sstatthoudakis/Documents/spectre/Gates/NOR2/nor_validate/corners/corner_pin1/wire_load/nor_tt.mt144
Total time required for tran analysis `transient145': CPU = 180.506 ms, elapsed
        = 301.169 ms, util. = 59.9%.
Time accumulated: CPU = 26.6121 s, elapsed = 68.6702 s (1m  8.7s).
Peak resident memory used = 143 Mbytes.


Notice from spectre.
    18 notices suppressed.


***************************
Alter Group `altergroup145'
***************************
Time for altergroup145: CPU = 8.059 ms, elapsed = 9.21583 ms.
Time accumulated: CPU = 26.6203 s, elapsed = 68.6811 s (1m  8.7s).
Peak resident memory used = 143 Mbytes.


*******************************************************
Transient Analysis `transient146': time = (0 s -> 2 ns)
*******************************************************
DC simulation time: CPU = 5.484 ms, elapsed = 5.48506 ms.

Notice from spectre during transient analysis `transient146'.
    No outputs were found. Loosening output filter criterion to `allpub'.


Opening the PSFXL file ./nor_tt.raw/transient146.tran.tran ...
Important parameter values:
    start = 0 s
    outputstart = 0 s
    stop = 2 ns
    step = 100 fs
    maxstep = 40 ps
    ic = all
    useprevic = no
    skipdc = no
    reltol = 1e-03
    abstol(V) = 1 uV
    abstol(I) = 1 pA
    temp = 50 C
    tnom = 27 C
    tempeffects = all
    errpreset = moderate
    method = traponly
    lteratio = 3.5
    relref = sigglobal
    cmin = 0 F
    gmin = 1 pS


Output and IC/nodeset summary:
                 probe  2       
                 save   3       (current)
                 save   165     (voltage)

......9......8.....

Notice from spectre at time = 594.814 ps during transient analysis
        `transient146'.
    Found trapezoidal ringing on node VVDD:p.

......9......8......7

Notice from spectre at time = 634.814 ps during transient analysis
        `transient146'.
    Found trapezoidal ringing on node VVDD:p.

......9......8......7.

Notice from spectre at time = 674.814 ps during transient analysis
        `transient146'.
    Found trapezoidal ringing on node VVDD:p.

......9......8......7...

Notice from spectre at time = 714.814 ps during transient analysis
        `transient146'.
    Found trapezoidal ringing on node VVDD:p.

......9......8......7....

Notice from spectre at time = 754.814 ps during transient analysis
        `transient146'.
    Found trapezoidal ringing on node VVDD:p.
        Further occurrences of this notice will be suppressed (except in log
        file).

......9......8......7......6......5......4......3......2......1......0
Number of accepted tran steps =             197

Notice from spectre during transient analysis `transient146'.
    Trapezoidal ringing is detected during tran analysis.
        Please use method=trap for better results and performance.


Maximum value achieved for any signal of each quantity: 
V: V(nor10.2:Q) = 1.566 V
I: I(VGND:p) = 116.1 uA
If your circuit contains signals of the same quantity that are vastly different
        in size (such as high voltage circuitry combined with low voltage
        control circuitry), you should consider specifying global option
        `bin_relref=yes'.

~~~~~~~~~~~~~~~~~~~~~~~~~~~~~~~~~
Post-Transient Simulation Summary
~~~~~~~~~~~~~~~~~~~~~~~~~~~~~~~~~
   -   To further speed up simulation, consider
          add ++aps on command line
~~~~~~~~~~~~~~~~~~~~~~~~~~~~~~~~~


During simulation, the CPU load for active processors is :
         0 (4.0 %)       1 (11.4 %)      2 (80.4 %)      3 (29.4 %)
         4 (8.7 %)       5 (11.1 %)      6 (100.0 %)     7 (4.3 %)
         8 (5.5 %)       9 (3.2 %)      10 (1.6 %)      11 (1.9 %)
        Total: 261.5%
Initial condition solution time: CPU = 5.554 ms, elapsed = 6.43206 ms.
Intrinsic tran analysis time:    CPU = 146.849 ms, elapsed = 257.729 ms.
Opening mt file: 
        /CASNFSHOME2/home/sstatthoudakis/Documents/spectre/Gates/NOR2/nor_validate/corners/corner_pin1/wire_load/nor_tt.mt145
Total time required for tran analysis `transient146': CPU = 155.533 ms, elapsed
        = 284.669 ms, util. = 54.6%.
Time accumulated: CPU = 26.7806 s, elapsed = 69.013 s (1m  9.0s).
Peak resident memory used = 143 Mbytes.


Notice from spectre.
    18 notices suppressed.


***************************
Alter Group `altergroup146'
***************************
Time for altergroup146: CPU = 8.031 ms, elapsed = 9.35602 ms.
Time accumulated: CPU = 26.7888 s, elapsed = 69.0236 s (1m  9.0s).
Peak resident memory used = 143 Mbytes.


*******************************************************
Transient Analysis `transient147': time = (0 s -> 2 ns)
*******************************************************
DC simulation time: CPU = 5.588 ms, elapsed = 5.58901 ms.

Notice from spectre during transient analysis `transient147'.
    No outputs were found. Loosening output filter criterion to `allpub'.


Opening the PSFXL file ./nor_tt.raw/transient147.tran.tran ...
Important parameter values:
    start = 0 s
    outputstart = 0 s
    stop = 2 ns
    step = 100 fs
    maxstep = 40 ps
    ic = all
    useprevic = no
    skipdc = no
    reltol = 1e-03
    abstol(V) = 1 uV
    abstol(I) = 1 pA
    temp = 125 C
    tnom = 27 C
    tempeffects = all
    errpreset = moderate
    method = traponly
    lteratio = 3.5
    relref = sigglobal
    cmin = 0 F
    gmin = 1 pS


Output and IC/nodeset summary:
                 probe  2       
                 save   3       (current)
                 save   165     (voltage)

......9......8......7...

Notice from spectre at time = 724.805 ps during transient analysis
        `transient147'.
    Found trapezoidal ringing on node nor10.1:A.

......9......8......7....

Notice from spectre at time = 764.805 ps during transient analysis
        `transient147'.
    Found trapezoidal ringing on node nor10.1:A.

......9......8......7......

Notice from spectre at time = 804.805 ps during transient analysis
        `transient147'.
    Found trapezoidal ringing on node nor10.1:A.

......9......8......7......6

Notice from spectre at time = 844.805 ps during transient analysis
        `transient147'.
    Found trapezoidal ringing on node nor10.1:A.

......9......8......7......6..

Notice from spectre at time = 884.805 ps during transient analysis
        `transient147'.
    Found trapezoidal ringing on node nor10.1:A.
        Further occurrences of this notice will be suppressed (except in log
        file).

......9......8......7......6......5......4......3......2......1......0
Number of accepted tran steps =             186

Notice from spectre during transient analysis `transient147'.
    Trapezoidal ringing is detected during tran analysis.
        Please use method=trap for better results and performance.


Maximum value achieved for any signal of each quantity: 
V: V(nor10.1:Q) = 1.556 V
I: I(VGND:p) = 109.5 uA
If your circuit contains signals of the same quantity that are vastly different
        in size (such as high voltage circuitry combined with low voltage
        control circuitry), you should consider specifying global option
        `bin_relref=yes'.

~~~~~~~~~~~~~~~~~~~~~~~~~~~~~~~~~
Post-Transient Simulation Summary
~~~~~~~~~~~~~~~~~~~~~~~~~~~~~~~~~
   -   To further speed up simulation, consider
          add ++aps on command line
~~~~~~~~~~~~~~~~~~~~~~~~~~~~~~~~~


During simulation, the CPU load for active processors is :
         0 (4.2 %)       1 (11.3 %)      2 (80.0 %)      3 (29.8 %)
         4 (8.7 %)       5 (11.0 %)      6 (100.0 %)     7 (4.3 %)
         8 (5.5 %)       9 (3.2 %)      10 (1.6 %)      11 (1.9 %)
        Total: 261.5%
Initial condition solution time: CPU = 5.657 ms, elapsed = 6.47497 ms.
Intrinsic tran analysis time:    CPU = 136.507 ms, elapsed = 300.033 ms.
Opening mt file: 
        /CASNFSHOME2/home/sstatthoudakis/Documents/spectre/Gates/NOR2/nor_validate/corners/corner_pin1/wire_load/nor_tt.mt146
Total time required for tran analysis `transient147': CPU = 145.523 ms, elapsed
        = 328.236 ms, util. = 44.3%.
Time accumulated: CPU = 26.9396 s, elapsed = 69.3929 s (1m  9.4s).
Peak resident memory used = 143 Mbytes.


Notice from spectre.
    10 notices suppressed.

Licensing Information:
Lic Summary:
[14:39:03.005154] Cdslmd servers:5280@10.64.82.10
[14:39:03.005201] Feature usage summary:
[14:39:03.005202] Virtuoso_Multi_mode_Simulation


Aggregate audit (2:39:03 PM, Wed Oct 29, 2025):
Time used: CPU = 27 s, elapsed = 69.4 s (1m  9.4s), util. = 38.9%.
Time spent in licensing: elapsed = 241 ms.
Peak memory used = 144 Mbytes.
Simulation started at: 2:37:54 PM, Wed Oct 29, 2025, ended at: 2:39:03 PM, Wed
        Oct 29, 2025, with elapsed time (wall clock): 69.4 s (1m  9.4s).
spectre completes with 0 errors, 12 warnings, and 1144 notices.
