
Spectre (R) Circuit Simulator
Version 23.1.0.242.isr1 64bit -- 7 Sep 2023
Copyright (C) 1989-2023 Cadence Design Systems, Inc. All rights reserved worldwide. Cadence and Spectre are registered trademarks of Cadence Design Systems, Inc. All others are the property of their respective holders.

Includes RSA BSAFE(R) Cryptographic or Security Protocol Software from RSA Security, Inc.

User: sstatthoudakis   Host: torreyridge   HostID: 7F0100   PID: 29472
Memory  available: 104.5257 GB  physical: 135.0278 GB
Linux   : CentOS Linux release 7 (Core)
CPU Type: Intel(R) Xeon(R) Silver 4114 CPU @ 2.20GHz
All processors running at 2194.8 MHz
        Socket: Processors
        0:       0
        2:       1
        4:       2
        6:       3
        8:       4
        10:      5
        12:      6
        14:      7
        16:      8
        18:      9
        20:     10
        22:     11
        
System load averages (1min, 5min, 15min) : 27.9 %, 25.6 %, 22.8 %
This is a virtual machine


Simulating `nor_ff.scs' on torreyridge at 2:35:42 PM, Wed Oct 29, 2025 (process id: 29472).
Current working directory: /CASNFSHOME2/home/sstatthoudakis/Documents/spectre/Gates/NOR2/nor_validate/corners/corner_pin1/wire_load
Command line:
     \
        /CASNFSHOME/home/edatools/cadence/2023-24/RHELx86/SPECTRE_23.10.242/tools.lnx86/bin/spectre  \
        -64 nor_ff.scs

Licensing Information:
[14:35:42.231833] Configured Lic search path (22.01-s002): 5280@10.64.82.10

Licensing Information:
[14:35:42.471667] Periodic Lic check successful

Loading /CASNFSHOME/home/edatools/cadence/2023-24/RHELx86/SPECTRE_23.10.242/tools.lnx86/cmi/lib/64bit/5.0/libinfineon_sh.so ...
Loading /CASNFSHOME/home/edatools/cadence/2023-24/RHELx86/SPECTRE_23.10.242/tools.lnx86/cmi/lib/64bit/5.0/libphilips_I_sh.so ...
Loading /CASNFSHOME/home/edatools/cadence/2023-24/RHELx86/SPECTRE_23.10.242/tools.lnx86/cmi/lib/64bit/5.0/libphilips_sh.so ...
Loading /CASNFSHOME/home/edatools/cadence/2023-24/RHELx86/SPECTRE_23.10.242/tools.lnx86/cmi/lib/64bit/5.0/libsparam_sh.so ...
Loading /CASNFSHOME/home/edatools/cadence/2023-24/RHELx86/SPECTRE_23.10.242/tools.lnx86/cmi/lib/64bit/5.0/libstmodels_sh.so ...
Reading file:  /CASNFSHOME2/home/sstatthoudakis/Documents/spectre/Gates/NOR2/nor_validate/corners/corner_pin1/wire_load/nor_ff.scs
Reading file:  /CASNFSHOME/home/edatools/cadence/2023-24/RHELx86/SPECTRE_23.10.242/tools.lnx86/spectre/etc/configs/spectre.cfg
Reading file:  /CASNFSHOME/home/tsaikaterini/IHP/IHP_Generation_files/130ng/ihp013ng_include_all_fast.scs
Reading file:  /CASNFSHOME/home/tsaikaterini/IHP/IHP_Generation_files/130ng/SG13S_618_rev1.12.15/tech/SG13_HBT/VBIC/spectre/SG13_cornerBIP.scs
Reading file:  /CASNFSHOME/home/tsaikaterini/IHP/IHP_Generation_files/130ng/SG13S_618_rev1.12.15/tech/SG13_HBT/VBIC/spectre/SG13_hbt_mm.scs
Reading file:  /CASNFSHOME/home/tsaikaterini/IHP/IHP_Generation_files/130ng/SG13S_618_rev1.12.15/tech/SG13_HBT/VBIC/spectre/SG13_hbt.lib
Reading file:  /CASNFSHOME/home/tsaikaterini/IHP/IHP_Generation_files/130ng/SG13S_618_rev1.12.15/tech/SG13_HBT/VBIC/spectre/SG13_hbt_stat.scs
Reading file:  /CASNFSHOME/home/tsaikaterini/IHP/IHP_Generation_files/130ng/SG13S_618_rev1.12.15/tech/SG13_MOS/library/spectre/cornerMOSlv_psp.scs
Reading file:  /CASNFSHOME/home/tsaikaterini/IHP/IHP_Generation_files/130ng/SG13S_618_rev1.12.15/tech/SG13_MOS/library/spectre/sg13_moslv_psp_stat.scs
Reading file:  /CASNFSHOME/home/tsaikaterini/IHP/IHP_Generation_files/130ng/SG13S_618_rev1.12.15/tech/SG13_MOS/library/spectre/sg13_moslv_psp_mod.lib
Reading file:  /CASNFSHOME/home/tsaikaterini/IHP/IHP_Generation_files/130ng/SG13S_618_rev1.12.15/tech/SG13_MOS/library/spectre/sg13_moslv_psp_parm.scs
Reading file:  /CASNFSHOME/home/tsaikaterini/IHP/IHP_Generation_files/130ng/SG13S_618_rev1.12.15/tech/SG13_MOS/library/spectre/cornerMOShv_psp.scs
Reading file:  /CASNFSHOME/home/tsaikaterini/IHP/IHP_Generation_files/130ng/SG13S_618_rev1.12.15/tech/SG13_MOS/library/spectre/sg13_moshv_psp_stat.scs
Reading file:  /CASNFSHOME/home/tsaikaterini/IHP/IHP_Generation_files/130ng/SG13S_618_rev1.12.15/tech/SG13_MOS/library/spectre/sg13_moshv_psp_mod.lib
Reading file:  /CASNFSHOME/home/tsaikaterini/IHP/IHP_Generation_files/130ng/SG13S_618_rev1.12.15/tech/SG13_MOS/library/spectre/sg13_moshv_psp_parm.scs

Warning from spectre in `nmoselt', during circuit read-in.
    WARNING (SFE-2296): "/CASNFSHOME/home/tsaikaterini/IHP/IHP_Generation_files/130ng/SG13S_618_rev1.12.15/tech/SG13_MOS/library/spectre/sg13_moshv_psp_mod.lib" 79: The inline subckt definition `nmoselt' does not contain any inline components. The `inline' qualifier will therefore be ignored.

Reading file:  /CASNFSHOME/home/tsaikaterini/IHP/IHP_Generation_files/130ng/SG13S_618_rev1.12.15/tech/SG13_MOS/library/spectre/sg13_svaricaphv_mosvar_mod.lib
Reading file:  /CASNFSHOME/home/tsaikaterini/IHP/IHP_Generation_files/130ng/SG13S_618_rev1.12.15/tech/SG13_PASSIVES/spectre/SG13_cornerRES.scs
Reading file:  /CASNFSHOME/home/tsaikaterini/IHP/IHP_Generation_files/130ng/SG13S_618_rev1.12.15/tech/SG13_PASSIVES/spectre/SG13_res_mm.scs
Reading file:  /CASNFSHOME/home/tsaikaterini/IHP/IHP_Generation_files/130ng/SG13S_618_rev1.12.15/tech/SG13_PASSIVES/spectre/SG13_res_stat.scs
Reading file:  /CASNFSHOME/home/tsaikaterini/IHP/IHP_Generation_files/130ng/SG13S_618_rev1.12.15/tech/SG13_PASSIVES/spectre/SG13_res.lib
Reading file:  /CASNFSHOME/home/tsaikaterini/IHP/IHP_Generation_files/130ng/SG13S_618_rev1.12.15/tech/SG13_PASSIVES/spectre/SG13_cornerCAP.scs
Reading file:  /CASNFSHOME/home/tsaikaterini/IHP/IHP_Generation_files/130ng/SG13S_618_rev1.12.15/tech/SG13_PASSIVES/spectre/SG13_cap_mm.scs
Reading file:  /CASNFSHOME/home/tsaikaterini/IHP/IHP_Generation_files/130ng/SG13S_618_rev1.12.15/tech/SG13_PASSIVES/spectre/SG13_cap_stat.scs
Reading file:  /CASNFSHOME/home/tsaikaterini/IHP/IHP_Generation_files/130ng/SG13S_618_rev1.12.15/tech/SG13_PASSIVES/spectre/SG13_cap.lib
Reading file:  /CASNFSHOME/home/tsaikaterini/IHP/IHP_Generation_files/130ng/SG13S_618_rev1.12.15/tech/SG13_PASSIVES/spectre/Ind_unit_4PI
Reading file:  /CASNFSHOME/home/tsaikaterini/IHP/IHP_Generation_files/130ng/SG13S_618_rev1.12.15/tech/SG13_PASSIVES/spectre/Parameters_define_4PI
Reading file:  /CASNFSHOME/home/tsaikaterini/IHP/IHP_Generation_files/130ng/SG13S_618_rev1.12.15/tech/SG13_PASSIVES/spectre/sg13s_dschottky_nbl1_mod.lib
Reading file:  /CASNFSHOME/home/tsaikaterini/IHP/IHP_Generation_files/130ng/SG13S_618_rev1.12.15/tech/SG13_PASSIVES/spectre/SG13_diodes.lib
Reading file:  /CASNFSHOME/home/tsaikaterini/IHP/IHP_Generation_files/130ng/SG13S_618_rev1.12.15/tech/SG13_MOS/library/spectre/CheckMOSstat.scs
Reading file:  /CASNFSHOME/home/tsaikaterini/IHP/IHP_Generation_files/130ng/SG13S_618_rev1.12.15/tech/SG13_MOS/library/spectre/CheckMOSdyn.scs
Reading file:  /CASNFSHOME/home/tsaikaterini/IHP/IHP_Generation_files/130ng/SG13S_618_rev1.12.15/tech/SG13_ESD/spectre/SG13_esd.lib
Reading file:  /CASNFSHOME/home/tsaikaterini/IHP/IHP_Generation_files/130ng/SG13S_618_rev1.12.15/tech/SG13_PASSIVES/spectre/SG13_cornerTSV.scs
Reading file:  /CASNFSHOME/home/tsaikaterini/IHP/IHP_Generation_files/130ng/SG13S_618_rev1.12.15/tech/SG13_PASSIVES/spectre/SG13_paramsTSV.scs
Reading file:  /CASNFSHOME/home/tsaikaterini/IHP/IHP_Generation_files/130ng/SG13S_618_rev1.12.15/tech/SG13_PASSIVES/spectre/SG13_tsv.lib
Reading file:  /CASNFSHOME/home/tsaikaterini/IHP/IHP_Generation_files/130ng/ixc013ng_stdcell_rc.scs
Time for NDB Parsing: CPU = 598.907 ms, elapsed = 1.36676 s.
Time accumulated: CPU = 720.055 ms, elapsed = 1.36676 s.
Peak resident memory used = 126 Mbytes.


Warning from spectre in `NO2JIX0':`nor1', during hierarchy flattening.
    WARNING (SFE-103): "/CASNFSHOME/home/tsaikaterini/IHP/IHP_Generation_files/130ng/ixc013ng_stdcell_rc.scs" 28325: Subcircuit parameter `nrd', defined for subcircuit `sg13_lv_pmos', has been ignored because it is invalid. Check the parameters that are defined for the instantiated subcircuit and rerun the simulation.
    WARNING (SFE-103): "/CASNFSHOME/home/tsaikaterini/IHP/IHP_Generation_files/130ng/ixc013ng_stdcell_rc.scs" 28325: Subcircuit parameter `nrs', defined for subcircuit `sg13_lv_pmos', has been ignored because it is invalid. Check the parameters that are defined for the instantiated subcircuit and rerun the simulation.
    WARNING (SFE-103): "/CASNFSHOME/home/tsaikaterini/IHP/IHP_Generation_files/130ng/ixc013ng_stdcell_rc.scs" 28328: Subcircuit parameter `nrd', defined for subcircuit `sg13_lv_pmos', has been ignored because it is invalid. Check the parameters that are defined for the instantiated subcircuit and rerun the simulation.
    WARNING (SFE-103): "/CASNFSHOME/home/tsaikaterini/IHP/IHP_Generation_files/130ng/ixc013ng_stdcell_rc.scs" 28328: Subcircuit parameter `nrs', defined for subcircuit `sg13_lv_pmos', has been ignored because it is invalid. Check the parameters that are defined for the instantiated subcircuit and rerun the simulation.
    WARNING (SFE-103): "/CASNFSHOME/home/tsaikaterini/IHP/IHP_Generation_files/130ng/ixc013ng_stdcell_rc.scs" 28330: Subcircuit parameter `nrd', defined for subcircuit `sg13_lv_nmos', has been ignored because it is invalid. Check the parameters that are defined for the instantiated subcircuit and rerun the simulation.
        Further occurrences of this warning will be suppressed.

Time for Elaboration: CPU = 32.702 ms, elapsed = 166.718 ms.
Time accumulated: CPU = 752.982 ms, elapsed = 1.53525 s.
Peak resident memory used = 134 Mbytes.


Notice from spectre in `NO2JIX0':`nor1', during hierarchy flattening.
    nor1.c6: Terminals are connected together (to node `VSS').
Notice from spectre in `NO2JIX0':`nor2', during hierarchy flattening.
    nor2.c6: Terminals are connected together (to node `VSS').
Notice from spectre in `NO2JIX0':`nor3', during hierarchy flattening.
    nor3.c6: Terminals are connected together (to node `VSS').
Notice from spectre in `NO2JIX0':`nor4', during hierarchy flattening.
    nor4.c6: Terminals are connected together (to node `VSS').
Notice from spectre in `NO2JIX0':`nor5', during hierarchy flattening.
    nor5.c6: Terminals are connected together (to node `VSS').
        Further occurrences of this notice will be suppressed.

Loading /CASNFSHOME/home/edatools/cadence/2023-24/RHELx86/SPECTRE_23.10.242/tools.lnx86/mdl/lib/64bit/libSpectreEH_sh.so ...

Time for EDB Visiting: CPU = 29.12 ms, elapsed = 34.7331 ms.
Time accumulated: CPU = 782.327 ms, elapsed = 1.57141 s.
Peak resident memory used = 140 Mbytes.


Warning from spectre during initial setup.
    WARNING (SPECTRE-17237): Assert violations will be written to the sqldb file because the 'checklimitdest' option has not been specified.
    WARNING (SPECTRE-17607): Assert `check_sg13s_lv_nmosHV_vgs' is ignored because it contains an expression which is not supported by native evaluator. 
    WARNING (SPECTRE-17607): Assert `check_sg13s_lv_nmosHV_vgd' is ignored because it contains an expression which is not supported by native evaluator. 
    WARNING (SPECTRE-17607): Assert `check_sg13s_lv_nmosHV_vds' is ignored because it contains an expression which is not supported by native evaluator. 
    WARNING (SPECTRE-17607): Assert `check_sg13s_lv_nmosHV_vdb' is ignored because it contains an expression which is not supported by native evaluator. 
    WARNING (SPECTRE-17607): Assert `check_sg13s_lv_nmosHV_vgb' is ignored because it contains an expression which is not supported by native evaluator. 
        Further occurrences of this warning will be suppressed.
Notice from spectre during topology check.
    Only one connection to the following 11 nodes:
        X_in1_wire.Capacitance*M
        X_out_wire.Capacitance*M
        X_out2_wire.Capacitance*M
        X_out3_wire.Capacitance*M
        X_out4_wire.Capacitance*M
        Further occurrences of this notice will be suppressed.
    No DC path from node `X_in1_wire.Capacitance*M' to ground, Gmin installed to provide path.
    No DC path from node `X_out_wire.Capacitance*M' to ground, Gmin installed to provide path.
    No DC path from node `X_out2_wire.Capacitance*M' to ground, Gmin installed to provide path.
    No DC path from node `X_out3_wire.Capacitance*M' to ground, Gmin installed to provide path.
    No DC path from node `X_out4_wire.Capacitance*M' to ground, Gmin installed to provide path.
        Further occurrences of this notice will be suppressed.


Global user options:
               temp = 0

Scoped user options:

Circuit inventory:
              nodes 165
          capacitor 181   
          pspnqs103 40    
           resistor 131   
            vsource 3     

Analysis and control statement inventory:
         altergroup 146   
               tran 147   

Output statements:
             .probe 0     
           .measure 3     
               save 0     

Design checks inventory:
          paramtest 160   
             assert 40    


Notice from spectre.
    12 notices suppressed.
    82 warnings suppressed.

Time for parsing: CPU = 19.194 ms, elapsed = 1.40781 s.
Time accumulated: CPU = 801.751 ms, elapsed = 2.98097 s.
Peak resident memory used = 143 Mbytes.

~~~~~~~~~~~~~~~~~~~~~~
Pre-Simulation Summary
~~~~~~~~~~~~~~~~~~~~~~
~~~~~~~~~~~~~~~~~~~~~~

Notice from spectre during transient analysis `transient1'.
    No checklimit analysis defined for asserts. A default checklimit analysis 'SpectreChecklimitAnal' has been created with all asserts enabled.


*****************************************************
Transient Analysis `transient1': time = (0 s -> 2 ns)
*****************************************************
DC simulation time: CPU = 4.571 ms, elapsed = 4.57311 ms.

Notice from spectre during transient analysis `transient1'.
    No outputs were found. Loosening output filter criterion to `allpub'.


Opening the PSFXL file ./nor_ff.raw/transient1.tran.tran ...
Important parameter values:
    start = 0 s
    outputstart = 0 s
    stop = 2 ns
    step = 100 fs
    maxstep = 40 ps
    ic = all
    useprevic = no
    skipdc = no
    reltol = 1e-03
    abstol(V) = 1 uV
    abstol(I) = 1 pA
    temp = 0 C
    tnom = 27 C
    tempeffects = all
    errpreset = moderate
    method = traponly
    lteratio = 3.5
    relref = sigglobal
    cmin = 0 F
    gmin = 1 pS


Output and IC/nodeset summary:
                 probe  2       
                 save   3       (current)
                 save   165     (voltage)

......9......8......7......6

Notice from spectre at time = 853.079 ps during transient analysis `transient1'.
    Found trapezoidal ringing on node VVDD:p.

......9......8......7......6..

Notice from spectre at time = 893.079 ps during transient analysis `transient1'.
    Found trapezoidal ringing on node VVDD:p.

......9......8......7......6...

Notice from spectre at time = 933.079 ps during transient analysis `transient1'.
    Found trapezoidal ringing on node VVDD:p.

......9......8......7......6.....

Notice from spectre at time = 973.079 ps during transient analysis `transient1'.
    Found trapezoidal ringing on node VVDD:p.

......9......8......7......6......

Notice from spectre at time = 1.01308 ns during transient analysis `transient1'.
    Found trapezoidal ringing on node VVDD:p.
        Further occurrences of this notice will be suppressed.

......9......8......7......6......5......4......3......2......1......0
Number of accepted tran steps =             193

Notice from spectre during transient analysis `transient1'.
    Trapezoidal ringing is detected during tran analysis.
        Please use method=trap for better results and performance.


Maximum value achieved for any signal of each quantity: 
V: V(nor10.1:Q) = 1.05 V
I: I(VGND:p) = 53.94 uA
If your circuit contains signals of the same quantity that are vastly different in size (such as high voltage circuitry combined with low voltage control circuitry), you should consider specifying global option `bin_relref=yes'.

~~~~~~~~~~~~~~~~~~~~~~~~~~~~~~~~~
Post-Transient Simulation Summary
~~~~~~~~~~~~~~~~~~~~~~~~~~~~~~~~~
   -   To further speed up simulation, consider
          add ++aps on command line
~~~~~~~~~~~~~~~~~~~~~~~~~~~~~~~~~


During simulation, the CPU load for active processors is :
         0 (100.0 %)     1 (19.8 %)      2 (10.2 %)      3 (4.0 %)
         4 (1.5 %)       5 (7.7 %)       6 (2.8 %)       7 (99.7 %)
         8 (10.1 %)      9 (1.8 %)      10 (2.2 %)      
        Total: 260.8%
Initial condition solution time: CPU = 4.692 ms, elapsed = 5.27883 ms.
Intrinsic tran analysis time:    CPU = 159.479 ms, elapsed = 260.889 ms.
Opening measure  file:  /CASNFSHOME2/home/sstatthoudakis/Documents/spectre/Gates/NOR2/nor_validate/corners/corner_pin1/wire_load/nor_ff.measure
Opening mt file:  /CASNFSHOME2/home/sstatthoudakis/Documents/spectre/Gates/NOR2/nor_validate/corners/corner_pin1/wire_load/nor_ff.mt0
Total time required for tran analysis `transient1': CPU = 239.742 ms, elapsed = 494.928 ms, util. = 48.4%.
Time accumulated: CPU = 1.05418 s, elapsed = 3.51635 s.
Peak resident memory used = 152 Mbytes.


Notice from spectre.
    4 notices suppressed.


*************************
Alter Group `altergroup1'
*************************
Time for altergroup1: CPU = 9.392 ms, elapsed = 10.1259 ms.
Time accumulated: CPU = 1.06373 s, elapsed = 3.52747 s.
Peak resident memory used = 152 Mbytes.


*****************************************************
Transient Analysis `transient2': time = (0 s -> 2 ns)
*****************************************************
DC simulation time: CPU = 4.568 ms, elapsed = 4.57001 ms.

Notice from spectre during transient analysis `transient2'.
    No outputs were found. Loosening output filter criterion to `allpub'.


Opening the PSFXL file ./nor_ff.raw/transient2.tran.tran ...
Important parameter values:
    start = 0 s
    outputstart = 0 s
    stop = 2 ns
    step = 100 fs
    maxstep = 40 ps
    ic = all
    useprevic = no
    skipdc = no
    reltol = 1e-03
    abstol(V) = 1 uV
    abstol(I) = 1 pA
    temp = 50 C
    tnom = 27 C
    tempeffects = all
    errpreset = moderate
    method = traponly
    lteratio = 3.5
    relref = sigglobal
    cmin = 0 F
    gmin = 1 pS


Output and IC/nodeset summary:
                 probe  2       
                 save   3       (current)
                 save   165     (voltage)

......9......8......7......6

Notice from spectre at time = 829.459 ps during transient analysis `transient2'.
    Found trapezoidal ringing on node VVDD:p.

......9......8......7......6.

Notice from spectre at time = 869.459 ps during transient analysis `transient2'.
    Found trapezoidal ringing on node VVDD:p.

......9......8......7......6..

Notice from spectre at time = 909.459 ps during transient analysis `transient2'.
    Found trapezoidal ringing on node VVDD:p.

......9......8......7......6....

Notice from spectre at time = 949.459 ps during transient analysis `transient2'.
    Found trapezoidal ringing on node VVDD:p.

......9......8......7......6.....

Notice from spectre at time = 989.459 ps during transient analysis `transient2'.
    Found trapezoidal ringing on node VVDD:p.
        Further occurrences of this notice will be suppressed.

......9......8......7......6......5......4......3......2......1......0
Number of accepted tran steps =             192

Notice from spectre during transient analysis `transient2'.
    Trapezoidal ringing is detected during tran analysis.
        Please use method=trap for better results and performance.


Maximum value achieved for any signal of each quantity: 
V: V(nor10.1:Q) = 1.046 V
I: I(VGND:p) = 52.7 uA
If your circuit contains signals of the same quantity that are vastly different in size (such as high voltage circuitry combined with low voltage control circuitry), you should consider specifying global option `bin_relref=yes'.

~~~~~~~~~~~~~~~~~~~~~~~~~~~~~~~~~
Post-Transient Simulation Summary
~~~~~~~~~~~~~~~~~~~~~~~~~~~~~~~~~
   -   To further speed up simulation, consider
          add ++aps on command line
~~~~~~~~~~~~~~~~~~~~~~~~~~~~~~~~~


During simulation, the CPU load for active processors is :
         0 (100.0 %)     1 (17.8 %)      2 (8.8 %)       3 (3.5 %)
         4 (2.1 %)       5 (13.9 %)      6 (4.0 %)       7 (99.7 %)
         8 (13.8 %)      9 (1.6 %)      10 (1.9 %)      
        Total: 267.8%
Initial condition solution time: CPU = 4.648 ms, elapsed = 5.07903 ms.
Intrinsic tran analysis time:    CPU = 144.373 ms, elapsed = 244.914 ms.
Opening mt file:  /CASNFSHOME2/home/sstatthoudakis/Documents/spectre/Gates/NOR2/nor_validate/corners/corner_pin1/wire_load/nor_ff.mt1
Total time required for tran analysis `transient2': CPU = 152.514 ms, elapsed = 266.029 ms, util. = 57.3%.
Time accumulated: CPU = 1.22176 s, elapsed = 3.85564 s.
Peak resident memory used = 152 Mbytes.


Notice from spectre.
    6 notices suppressed.


*************************
Alter Group `altergroup2'
*************************
Time for altergroup2: CPU = 7.026 ms, elapsed = 7.87592 ms.
Time accumulated: CPU = 1.22891 s, elapsed = 3.86557 s.
Peak resident memory used = 152 Mbytes.


*****************************************************
Transient Analysis `transient3': time = (0 s -> 2 ns)
*****************************************************
DC simulation time: CPU = 4.485 ms, elapsed = 4.48704 ms.

Notice from spectre during transient analysis `transient3'.
    No outputs were found. Loosening output filter criterion to `allpub'.


Opening the PSFXL file ./nor_ff.raw/transient3.tran.tran ...
Important parameter values:
    start = 0 s
    outputstart = 0 s
    stop = 2 ns
    step = 100 fs
    maxstep = 40 ps
    ic = all
    useprevic = no
    skipdc = no
    reltol = 1e-03
    abstol(V) = 1 uV
    abstol(I) = 1 pA
    temp = 125 C
    tnom = 27 C
    tempeffects = all
    errpreset = moderate
    method = traponly
    lteratio = 3.5
    relref = sigglobal
    cmin = 0 F
    gmin = 1 pS


Output and IC/nodeset summary:
                 probe  2       
                 save   3       (current)
                 save   165     (voltage)

......9......8......7......6

Notice from spectre at time = 840.089 ps during transient analysis `transient3'.
    Found trapezoidal ringing on node VGND:p.

......9......8......7......6.

Notice from spectre at time = 880.089 ps during transient analysis `transient3'.
    Found trapezoidal ringing on node VGND:p.

......9......8......7......6...

Notice from spectre at time = 920.089 ps during transient analysis `transient3'.
    Found trapezoidal ringing on node VGND:p.

......9......8......7......6....

Notice from spectre at time = 960.089 ps during transient analysis `transient3'.
    Found trapezoidal ringing on node VGND:p.

......9......8......7......6......

Notice from spectre at time = 1.00009 ns during transient analysis `transient3'.
    Found trapezoidal ringing on node VGND:p.
        Further occurrences of this notice will be suppressed.

......9......8......7......6......5......4......3......2......1......0
Number of accepted tran steps =             180

Notice from spectre during transient analysis `transient3'.
    Trapezoidal ringing is detected during tran analysis.
        Please use method=trap for better results and performance.


Maximum value achieved for any signal of each quantity: 
V: V(nor10.2:Q) = 1.039 V
I: I(VGND:p) = 49.84 uA
If your circuit contains signals of the same quantity that are vastly different in size (such as high voltage circuitry combined with low voltage control circuitry), you should consider specifying global option `bin_relref=yes'.

~~~~~~~~~~~~~~~~~~~~~~~~~~~~~~~~~
Post-Transient Simulation Summary
~~~~~~~~~~~~~~~~~~~~~~~~~~~~~~~~~
   -   To further speed up simulation, consider
          add ++aps on command line
~~~~~~~~~~~~~~~~~~~~~~~~~~~~~~~~~


During simulation, the CPU load for active processors is :
         0 (100.0 %)     1 (13.9 %)      2 (7.1 %)       3 (4.5 %)
         4 (1.6 %)       5 (13.8 %)      6 (4.1 %)       7 (99.8 %)
         8 (13.0 %)      9 (1.6 %)      10 (1.4 %)      11 (1.6 %)
        Total: 262.7%
Initial condition solution time: CPU = 4.558 ms, elapsed = 4.87089 ms.
Intrinsic tran analysis time:    CPU = 151.401 ms, elapsed = 989.42 ms.
Opening mt file:  /CASNFSHOME2/home/sstatthoudakis/Documents/spectre/Gates/NOR2/nor_validate/corners/corner_pin1/wire_load/nor_ff.mt2
Total time required for tran analysis `transient3': CPU = 160.491 ms, elapsed = 1.102 s, util. = 14.6%.
Time accumulated: CPU = 1.39566 s, elapsed = 5.0089 s.
Peak resident memory used = 152 Mbytes.


Notice from spectre.
    4 notices suppressed.


*************************
Alter Group `altergroup3'
*************************
Time for altergroup3: CPU = 6.821 ms, elapsed = 8.03185 ms.
Time accumulated: CPU = 1.40261 s, elapsed = 5.01831 s.
Peak resident memory used = 152 Mbytes.


*****************************************************
Transient Analysis `transient4': time = (0 s -> 2 ns)
*****************************************************
DC simulation time: CPU = 4.53 ms, elapsed = 4.5321 ms.

Notice from spectre during transient analysis `transient4'.
    No outputs were found. Loosening output filter criterion to `allpub'.


Opening the PSFXL file ./nor_ff.raw/transient4.tran.tran ...
Important parameter values:
    start = 0 s
    outputstart = 0 s
    stop = 2 ns
    step = 100 fs
    maxstep = 40 ps
    ic = all
    useprevic = no
    skipdc = no
    reltol = 1e-03
    abstol(V) = 1 uV
    abstol(I) = 1 pA
    temp = 0 C
    tnom = 27 C
    tempeffects = all
    errpreset = moderate
    method = traponly
    lteratio = 3.5
    relref = sigglobal
    cmin = 0 F
    gmin = 1 pS


Output and IC/nodeset summary:
                 probe  2       
                 save   3       (current)
                 save   165     (voltage)

......9......8......7......6....

Notice from spectre at time = 952.365 ps during transient analysis `transient4'.
    Found trapezoidal ringing on node nor7.1:Q.

......9......8......7......6.....

Notice from spectre at time = 992.365 ps during transient analysis `transient4'.
    Found trapezoidal ringing on node nor7.1:Q.

......9......8......7......6......5

Notice from spectre at time = 1.03236 ns during transient analysis `transient4'.
    Found trapezoidal ringing on node nor7.1:Q.

......9......8......7......6......5.

Notice from spectre at time = 1.07236 ns during transient analysis `transient4'.
    Found trapezoidal ringing on node nor7.1:Q.

......9......8......7......6......5...

Notice from spectre at time = 1.11236 ns during transient analysis `transient4'.
    Found trapezoidal ringing on node nor7.1:Q.
        Further occurrences of this notice will be suppressed.

......9......8......7......6......5......4......3......2......1......0
Number of accepted tran steps =             199

Notice from spectre during transient analysis `transient4'.
    Trapezoidal ringing is detected during tran analysis.
        Please use method=trap for better results and performance.


Maximum value achieved for any signal of each quantity: 
V: V(nor10.2:Q) = 1.059 V
I: I(VGND:p) = 54.63 uA
If your circuit contains signals of the same quantity that are vastly different in size (such as high voltage circuitry combined with low voltage control circuitry), you should consider specifying global option `bin_relref=yes'.

~~~~~~~~~~~~~~~~~~~~~~~~~~~~~~~~~
Post-Transient Simulation Summary
~~~~~~~~~~~~~~~~~~~~~~~~~~~~~~~~~
   -   To further speed up simulation, consider
          add ++aps on command line
~~~~~~~~~~~~~~~~~~~~~~~~~~~~~~~~~


During simulation, the CPU load for active processors is :
         0 (100.0 %)     1 (16.1 %)      2 (7.3 %)       3 (4.9 %)
         4 (2.3 %)       5 (13.0 %)      6 (3.8 %)       7 (99.8 %)
         8 (16.0 %)      9 (1.5 %)      10 (1.3 %)      11 (1.7 %)
        Total: 267.7%
Initial condition solution time: CPU = 4.623 ms, elapsed = 5.17201 ms.
Intrinsic tran analysis time:    CPU = 152.427 ms, elapsed = 298.963 ms.
Opening mt file:  /CASNFSHOME2/home/sstatthoudakis/Documents/spectre/Gates/NOR2/nor_validate/corners/corner_pin1/wire_load/nor_ff.mt3
Total time required for tran analysis `transient4': CPU = 160.425 ms, elapsed = 324.669 ms, util. = 49.4%.
Time accumulated: CPU = 1.56819 s, elapsed = 5.38102 s.
Peak resident memory used = 152 Mbytes.


Notice from spectre.
    2 notices suppressed.


*************************
Alter Group `altergroup4'
*************************
Time for altergroup4: CPU = 7.285 ms, elapsed = 8.60906 ms.
Time accumulated: CPU = 1.57559 s, elapsed = 5.39152 s.
Peak resident memory used = 152 Mbytes.


*****************************************************
Transient Analysis `transient5': time = (0 s -> 2 ns)
*****************************************************
DC simulation time: CPU = 7.702 ms, elapsed = 7.70378 ms.

Notice from spectre during transient analysis `transient5'.
    No outputs were found. Loosening output filter criterion to `allpub'.


Opening the PSFXL file ./nor_ff.raw/transient5.tran.tran ...
Important parameter values:
    start = 0 s
    outputstart = 0 s
    stop = 2 ns
    step = 100 fs
    maxstep = 40 ps
    ic = all
    useprevic = no
    skipdc = no
    reltol = 1e-03
    abstol(V) = 1 uV
    abstol(I) = 1 pA
    temp = 50 C
    tnom = 27 C
    tempeffects = all
    errpreset = moderate
    method = traponly
    lteratio = 3.5
    relref = sigglobal
    cmin = 0 F
    gmin = 1 pS


Output and IC/nodeset summary:
                 probe  2       
                 save   3       (current)
                 save   165     (voltage)

......9......8......7......

Notice from spectre at time = 817.486 ps during transient analysis `transient5'.
    Found trapezoidal ringing on node VVDD:p.

......9......8......7......6.

Notice from spectre at time = 857.486 ps during transient analysis `transient5'.
    Found trapezoidal ringing on node VVDD:p.

......9......8......7......6..

Notice from spectre at time = 897.486 ps during transient analysis `transient5'.
    Found trapezoidal ringing on node VVDD:p.

......9......8......7......6...

Notice from spectre at time = 937.486 ps during transient analysis `transient5'.
    Found trapezoidal ringing on node VVDD:p.

......9......8......7......6.....

Notice from spectre at time = 977.486 ps during transient analysis `transient5'.
    Found trapezoidal ringing on node VVDD:p.
        Further occurrences of this notice will be suppressed.

......9......8......7......6......5......4......3......2......1......0
Number of accepted tran steps =             192

Notice from spectre during transient analysis `transient5'.
    Trapezoidal ringing is detected during tran analysis.
        Please use method=trap for better results and performance.


Maximum value achieved for any signal of each quantity: 
V: V(nor10.1:Q) = 1.056 V
I: I(VGND:p) = 53.65 uA
If your circuit contains signals of the same quantity that are vastly different in size (such as high voltage circuitry combined with low voltage control circuitry), you should consider specifying global option `bin_relref=yes'.

~~~~~~~~~~~~~~~~~~~~~~~~~~~~~~~~~
Post-Transient Simulation Summary
~~~~~~~~~~~~~~~~~~~~~~~~~~~~~~~~~
   -   To further speed up simulation, consider
          add ++aps on command line
~~~~~~~~~~~~~~~~~~~~~~~~~~~~~~~~~


During simulation, the CPU load for active processors is :
         0 (100.0 %)     1 (18.2 %)      2 (6.9 %)       3 (5.7 %)
         4 (2.1 %)       5 (12.6 %)      6 (3.7 %)       7 (99.8 %)
         8 (18.4 %)      9 (1.6 %)      10 (1.2 %)      11 (1.6 %)
        Total: 271.8%
Initial condition solution time: CPU = 7.81 ms, elapsed = 8.40187 ms.
Intrinsic tran analysis time:    CPU = 145.316 ms, elapsed = 268.768 ms.
Opening mt file:  /CASNFSHOME2/home/sstatthoudakis/Documents/spectre/Gates/NOR2/nor_validate/corners/corner_pin1/wire_load/nor_ff.mt4
Total time required for tran analysis `transient5': CPU = 156.87 ms, elapsed = 294.574 ms, util. = 53.3%.
Time accumulated: CPU = 1.73788 s, elapsed = 5.73071 s.
Peak resident memory used = 152 Mbytes.


Notice from spectre.
    5 notices suppressed.


*************************
Alter Group `altergroup5'
*************************
Time for altergroup5: CPU = 6.662 ms, elapsed = 8.08692 ms.
Time accumulated: CPU = 1.74466 s, elapsed = 5.7404 s.
Peak resident memory used = 152 Mbytes.


*****************************************************
Transient Analysis `transient6': time = (0 s -> 2 ns)
*****************************************************
DC simulation time: CPU = 4.417 ms, elapsed = 4.4179 ms.

Notice from spectre during transient analysis `transient6'.
    No outputs were found. Loosening output filter criterion to `allpub'.


Opening the PSFXL file ./nor_ff.raw/transient6.tran.tran ...
Important parameter values:
    start = 0 s
    outputstart = 0 s
    stop = 2 ns
    step = 100 fs
    maxstep = 40 ps
    ic = all
    useprevic = no
    skipdc = no
    reltol = 1e-03
    abstol(V) = 1 uV
    abstol(I) = 1 pA
    temp = 125 C
    tnom = 27 C
    tempeffects = all
    errpreset = moderate
    method = traponly
    lteratio = 3.5
    relref = sigglobal
    cmin = 0 F
    gmin = 1 pS


Output and IC/nodeset summary:
                 probe  2       
                 save   3       (current)
                 save   165     (voltage)

......9......8......7......6

Notice from spectre at time = 827.842 ps during transient analysis `transient6'.
    Found trapezoidal ringing on node VVDD:p.

......9......8......7......6.

Notice from spectre at time = 867.842 ps during transient analysis `transient6'.
    Found trapezoidal ringing on node VVDD:p.

......9......8......7......6..

Notice from spectre at time = 907.842 ps during transient analysis `transient6'.
    Found trapezoidal ringing on node VVDD:p.

......9......8......7......6....

Notice from spectre at time = 947.842 ps during transient analysis `transient6'.
    Found trapezoidal ringing on node VVDD:p.

......9......8......7......6.....

Notice from spectre at time = 987.842 ps during transient analysis `transient6'.
    Found trapezoidal ringing on node VVDD:p.
        Further occurrences of this notice will be suppressed.

......9......8......7......6......5......4......3......2......1......0
Number of accepted tran steps =             183

Notice from spectre during transient analysis `transient6'.
    Trapezoidal ringing is detected during tran analysis.
        Please use method=trap for better results and performance.


Maximum value achieved for any signal of each quantity: 
V: V(nor10.2:Q) = 1.05 V
I: I(VGND:p) = 50.77 uA
If your circuit contains signals of the same quantity that are vastly different in size (such as high voltage circuitry combined with low voltage control circuitry), you should consider specifying global option `bin_relref=yes'.

~~~~~~~~~~~~~~~~~~~~~~~~~~~~~~~~~
Post-Transient Simulation Summary
~~~~~~~~~~~~~~~~~~~~~~~~~~~~~~~~~
   -   To further speed up simulation, consider
          add ++aps on command line
~~~~~~~~~~~~~~~~~~~~~~~~~~~~~~~~~


During simulation, the CPU load for active processors is :
         0 (100.0 %)     1 (19.8 %)      2 (6.5 %)       3 (5.4 %)
         4 (2.0 %)       5 (12.1 %)      6 (4.0 %)       7 (99.8 %)
         8 (19.9 %)      9 (1.7 %)      10 (1.2 %)      11 (1.5 %)
        Total: 273.8%
Initial condition solution time: CPU = 4.49 ms, elapsed = 5.08118 ms.
Intrinsic tran analysis time:    CPU = 141.227 ms, elapsed = 255.029 ms.
Opening mt file:  /CASNFSHOME2/home/sstatthoudakis/Documents/spectre/Gates/NOR2/nor_validate/corners/corner_pin1/wire_load/nor_ff.mt5
Total time required for tran analysis `transient6': CPU = 148.917 ms, elapsed = 277.869 ms, util. = 53.6%.
Time accumulated: CPU = 1.89884 s, elapsed = 6.05658 s.
Peak resident memory used = 152 Mbytes.


Notice from spectre.
    6 notices suppressed.


*************************
Alter Group `altergroup6'
*************************
Time for altergroup6: CPU = 7.273 ms, elapsed = 8.3971 ms.
Time accumulated: CPU = 1.90628 s, elapsed = 6.06643 s.
Peak resident memory used = 152 Mbytes.


*****************************************************
Transient Analysis `transient7': time = (0 s -> 2 ns)
*****************************************************
DC simulation time: CPU = 4.319 ms, elapsed = 4.32205 ms.

Notice from spectre during transient analysis `transient7'.
    No outputs were found. Loosening output filter criterion to `allpub'.


Opening the PSFXL file ./nor_ff.raw/transient7.tran.tran ...
Important parameter values:
    start = 0 s
    outputstart = 0 s
    stop = 2 ns
    step = 100 fs
    maxstep = 40 ps
    ic = all
    useprevic = no
    skipdc = no
    reltol = 1e-03
    abstol(V) = 1 uV
    abstol(I) = 1 pA
    temp = 0 C
    tnom = 27 C
    tempeffects = all
    errpreset = moderate
    method = traponly
    lteratio = 3.5
    relref = sigglobal
    cmin = 0 F
    gmin = 1 pS


Output and IC/nodeset summary:
                 probe  2       
                 save   3       (current)
                 save   165     (voltage)

......9......8......7......6

Notice from spectre at time = 826.175 ps during transient analysis `transient7'.
    Found trapezoidal ringing on node VVDD:p.

......9......8......7......6.

Notice from spectre at time = 866.175 ps during transient analysis `transient7'.
    Found trapezoidal ringing on node VVDD:p.

......9......8......7......6..

Notice from spectre at time = 906.175 ps during transient analysis `transient7'.
    Found trapezoidal ringing on node VVDD:p.

......9......8......7......6....

Notice from spectre at time = 946.175 ps during transient analysis `transient7'.
    Found trapezoidal ringing on node VVDD:p.

......9......8......7......6.....

Notice from spectre at time = 986.175 ps during transient analysis `transient7'.
    Found trapezoidal ringing on node VVDD:p.
        Further occurrences of this notice will be suppressed.

......9......8......7......6......5......4......3......2......1......0
Number of accepted tran steps =             191

Notice from spectre during transient analysis `transient7'.
    Trapezoidal ringing is detected during tran analysis.
        Please use method=trap for better results and performance.


Maximum value achieved for any signal of each quantity: 
V: V(nor10.2:Q) = 1.071 V
I: I(VGND:p) = 55.1 uA
If your circuit contains signals of the same quantity that are vastly different in size (such as high voltage circuitry combined with low voltage control circuitry), you should consider specifying global option `bin_relref=yes'.

~~~~~~~~~~~~~~~~~~~~~~~~~~~~~~~~~
Post-Transient Simulation Summary
~~~~~~~~~~~~~~~~~~~~~~~~~~~~~~~~~
   -   To further speed up simulation, consider
          add ++aps on command line
~~~~~~~~~~~~~~~~~~~~~~~~~~~~~~~~~


During simulation, the CPU load for active processors is :
         0 (100.0 %)     1 (21.5 %)      2 (6.2 %)       3 (5.1 %)
         4 (1.9 %)       5 (11.6 %)      6 (4.8 %)       7 (99.8 %)
         8 (20.9 %)      9 (1.6 %)      10 (1.1 %)      11 (1.4 %)
        Total: 275.8%
Initial condition solution time: CPU = 4.406 ms, elapsed = 4.96984 ms.
Intrinsic tran analysis time:    CPU = 151.114 ms, elapsed = 261.266 ms.
Opening mt file:  /CASNFSHOME2/home/sstatthoudakis/Documents/spectre/Gates/NOR2/nor_validate/corners/corner_pin1/wire_load/nor_ff.mt6
Total time required for tran analysis `transient7': CPU = 158.828 ms, elapsed = 284.245 ms, util. = 55.9%.
Time accumulated: CPU = 2.0703 s, elapsed = 6.38367 s.
Peak resident memory used = 152 Mbytes.


Notice from spectre.
    5 notices suppressed.


*************************
Alter Group `altergroup7'
*************************
Time for altergroup7: CPU = 6.521 ms, elapsed = 7.43103 ms.
Time accumulated: CPU = 2.07696 s, elapsed = 6.39249 s.
Peak resident memory used = 152 Mbytes.


*****************************************************
Transient Analysis `transient8': time = (0 s -> 2 ns)
*****************************************************
DC simulation time: CPU = 4.241 ms, elapsed = 4.24314 ms.

Notice from spectre during transient analysis `transient8'.
    No outputs were found. Loosening output filter criterion to `allpub'.


Opening the PSFXL file ./nor_ff.raw/transient8.tran.tran ...
Important parameter values:
    start = 0 s
    outputstart = 0 s
    stop = 2 ns
    step = 100 fs
    maxstep = 40 ps
    ic = all
    useprevic = no
    skipdc = no
    reltol = 1e-03
    abstol(V) = 1 uV
    abstol(I) = 1 pA
    temp = 50 C
    tnom = 27 C
    tempeffects = all
    errpreset = moderate
    method = traponly
    lteratio = 3.5
    relref = sigglobal
    cmin = 0 F
    gmin = 1 pS


Output and IC/nodeset summary:
                 probe  2       
                 save   3       (current)
                 save   165     (voltage)

......9......8......7......6.

Notice from spectre at time = 879.787 ps during transient analysis `transient8'.
    Found trapezoidal ringing on node VVDD:p.

......9......8......7......6...

Notice from spectre at time = 919.787 ps during transient analysis `transient8'.
    Found trapezoidal ringing on node VVDD:p.

......9......8......7......6....

Notice from spectre at time = 959.787 ps during transient analysis `transient8'.
    Found trapezoidal ringing on node VVDD:p.

......9......8......7......6......

Notice from spectre at time = 999.787 ps during transient analysis `transient8'.
    Found trapezoidal ringing on node VVDD:p.

......9......8......7......6......5

Notice from spectre at time = 1.03979 ns during transient analysis `transient8'.
    Found trapezoidal ringing on node VVDD:p.
        Further occurrences of this notice will be suppressed.

......9......8......7......6......5......4......3......2......1......0
Number of accepted tran steps =             188

Notice from spectre during transient analysis `transient8'.
    Trapezoidal ringing is detected during tran analysis.
        Please use method=trap for better results and performance.


Maximum value achieved for any signal of each quantity: 
V: V(nor10.1:Q) = 1.067 V
I: I(VGND:p) = 53.75 uA
If your circuit contains signals of the same quantity that are vastly different in size (such as high voltage circuitry combined with low voltage control circuitry), you should consider specifying global option `bin_relref=yes'.

~~~~~~~~~~~~~~~~~~~~~~~~~~~~~~~~~
Post-Transient Simulation Summary
~~~~~~~~~~~~~~~~~~~~~~~~~~~~~~~~~
   -   To further speed up simulation, consider
          add ++aps on command line
~~~~~~~~~~~~~~~~~~~~~~~~~~~~~~~~~


During simulation, the CPU load for active processors is :
         0 (100.0 %)     1 (22.4 %)      2 (6.2 %)       3 (5.0 %)
         4 (2.9 %)       5 (11.5 %)      6 (5.6 %)       7 (99.8 %)
         8 (21.1 %)      9 (1.5 %)      10 (1.2 %)      11 (1.5 %)
        Total: 278.7%
Initial condition solution time: CPU = 4.316 ms, elapsed = 4.71497 ms.
Intrinsic tran analysis time:    CPU = 159.028 ms, elapsed = 253.085 ms.
Opening mt file:  /CASNFSHOME2/home/sstatthoudakis/Documents/spectre/Gates/NOR2/nor_validate/corners/corner_pin1/wire_load/nor_ff.mt7
Total time required for tran analysis `transient8': CPU = 166.6 ms, elapsed = 273.492 ms, util. = 60.9%.
Time accumulated: CPU = 2.25212 s, elapsed = 6.70421 s.
Peak resident memory used = 152 Mbytes.


Notice from spectre.
    3 notices suppressed.


*************************
Alter Group `altergroup8'
*************************
Time for altergroup8: CPU = 8.218 ms, elapsed = 9.26304 ms.
Time accumulated: CPU = 2.26049 s, elapsed = 6.71483 s.
Peak resident memory used = 152 Mbytes.


*****************************************************
Transient Analysis `transient9': time = (0 s -> 2 ns)
*****************************************************
DC simulation time: CPU = 5.077 ms, elapsed = 5.07808 ms.

Notice from spectre during transient analysis `transient9'.
    No outputs were found. Loosening output filter criterion to `allpub'.


Opening the PSFXL file ./nor_ff.raw/transient9.tran.tran ...
Important parameter values:
    start = 0 s
    outputstart = 0 s
    stop = 2 ns
    step = 100 fs
    maxstep = 40 ps
    ic = all
    useprevic = no
    skipdc = no
    reltol = 1e-03
    abstol(V) = 1 uV
    abstol(I) = 1 pA
    temp = 125 C
    tnom = 27 C
    tempeffects = all
    errpreset = moderate
    method = traponly
    lteratio = 3.5
    relref = sigglobal
    cmin = 0 F
    gmin = 1 pS


Output and IC/nodeset summary:
                 probe  2       
                 save   3       (current)
                 save   165     (voltage)

......9......8......7......6.

Notice from spectre at time = 858.003 ps during transient analysis `transient9'.
    Found trapezoidal ringing on node VGND:p.

......9......8......7......6..

Notice from spectre at time = 898.003 ps during transient analysis `transient9'.
    Found trapezoidal ringing on node VGND:p.

......9......8......7......6...

Notice from spectre at time = 938.003 ps during transient analysis `transient9'.
    Found trapezoidal ringing on node VGND:p.

......9......8......7......6.....

Notice from spectre at time = 978.003 ps during transient analysis `transient9'.
    Found trapezoidal ringing on node VGND:p.

......9......8......7......6......

Notice from spectre at time = 1.018 ns during transient analysis `transient9'.
    Found trapezoidal ringing on node VGND:p.
        Further occurrences of this notice will be suppressed.

......9......8......7......6......5......4......3......2......1......0
Number of accepted tran steps =             180

Notice from spectre during transient analysis `transient9'.
    Trapezoidal ringing is detected during tran analysis.
        Please use method=trap for better results and performance.


Maximum value achieved for any signal of each quantity: 
V: V(nor10.2:Q) = 1.06 V
I: I(VGND:p) = 52.45 uA
If your circuit contains signals of the same quantity that are vastly different in size (such as high voltage circuitry combined with low voltage control circuitry), you should consider specifying global option `bin_relref=yes'.

~~~~~~~~~~~~~~~~~~~~~~~~~~~~~~~~~
Post-Transient Simulation Summary
~~~~~~~~~~~~~~~~~~~~~~~~~~~~~~~~~
   -   To further speed up simulation, consider
          add ++aps on command line
~~~~~~~~~~~~~~~~~~~~~~~~~~~~~~~~~


During simulation, the CPU load for active processors is :
         0 (100.0 %)     1 (21.3 %)      2 (5.9 %)       3 (4.9 %)
         4 (2.7 %)       5 (11.1 %)      6 (8.2 %)       7 (99.9 %)
         8 (20.1 %)      9 (1.6 %)      10 (1.1 %)      11 (1.4 %)
        Total: 278.1%
Initial condition solution time: CPU = 5.156 ms, elapsed = 5.59402 ms.
Intrinsic tran analysis time:    CPU = 170.603 ms, elapsed = 277.283 ms.
Opening mt file:  /CASNFSHOME2/home/sstatthoudakis/Documents/spectre/Gates/NOR2/nor_validate/corners/corner_pin1/wire_load/nor_ff.mt8
Total time required for tran analysis `transient9': CPU = 181.006 ms, elapsed = 300.683 ms, util. = 60.2%.
Time accumulated: CPU = 2.44888 s, elapsed = 7.05047 s.
Peak resident memory used = 152 Mbytes.


Notice from spectre.
    5 notices suppressed.


*************************
Alter Group `altergroup9'
*************************
Time for altergroup9: CPU = 7.081 ms, elapsed = 8.04305 ms.
Time accumulated: CPU = 2.45608 s, elapsed = 7.05952 s.
Peak resident memory used = 152 Mbytes.


******************************************************
Transient Analysis `transient10': time = (0 s -> 2 ns)
******************************************************
DC simulation time: CPU = 4.359 ms, elapsed = 4.36091 ms.

Notice from spectre during transient analysis `transient10'.
    No outputs were found. Loosening output filter criterion to `allpub'.


Opening the PSFXL file ./nor_ff.raw/transient10.tran.tran ...
Important parameter values:
    start = 0 s
    outputstart = 0 s
    stop = 2 ns
    step = 100 fs
    maxstep = 40 ps
    ic = all
    useprevic = no
    skipdc = no
    reltol = 1e-03
    abstol(V) = 1 uV
    abstol(I) = 1 pA
    temp = 0 C
    tnom = 27 C
    tempeffects = all
    errpreset = moderate
    method = traponly
    lteratio = 3.5
    relref = sigglobal
    cmin = 0 F
    gmin = 1 pS


Output and IC/nodeset summary:
                 probe  2       
                 save   3       (current)
                 save   165     (voltage)

......9......8......7......

Notice from spectre at time = 799.866 ps during transient analysis `transient10'.
    Found trapezoidal ringing on node VVDD:p.

......9......8......7......6

Notice from spectre at time = 839.866 ps during transient analysis `transient10'.
    Found trapezoidal ringing on node VVDD:p.

......9......8......7......6.

Notice from spectre at time = 879.866 ps during transient analysis `transient10'.
    Found trapezoidal ringing on node VVDD:p.

......9......8......7......6...

Notice from spectre at time = 919.866 ps during transient analysis `transient10'.
    Found trapezoidal ringing on node VVDD:p.

......9......8......7......6....

Notice from spectre at time = 959.866 ps during transient analysis `transient10'.
    Found trapezoidal ringing on node VVDD:p.
        Further occurrences of this notice will be suppressed.

......9......8......7......6......5......4......3......2......1......0
Number of accepted tran steps =             200

Notice from spectre during transient analysis `transient10'.
    Trapezoidal ringing is detected during tran analysis.
        Please use method=trap for better results and performance.


Maximum value achieved for any signal of each quantity: 
V: V(nor10.2:Q) = 1.082 V
I: I(VGND:p) = 58.13 uA
If your circuit contains signals of the same quantity that are vastly different in size (such as high voltage circuitry combined with low voltage control circuitry), you should consider specifying global option `bin_relref=yes'.

~~~~~~~~~~~~~~~~~~~~~~~~~~~~~~~~~
Post-Transient Simulation Summary
~~~~~~~~~~~~~~~~~~~~~~~~~~~~~~~~~
   -   To further speed up simulation, consider
          add ++aps on command line
~~~~~~~~~~~~~~~~~~~~~~~~~~~~~~~~~


During simulation, the CPU load for active processors is :
         0 (100.0 %)     1 (20.3 %)      2 (5.8 %)       3 (4.7 %)
         4 (2.6 %)       5 (10.8 %)      6 (10.2 %)      7 (99.9 %)
         8 (19.3 %)      9 (1.6 %)      10 (1.1 %)      11 (1.4 %)
        Total: 277.6%
Initial condition solution time: CPU = 4.427 ms, elapsed = 4.86708 ms.
Intrinsic tran analysis time:    CPU = 155.216 ms, elapsed = 258.579 ms.
Opening mt file:  /CASNFSHOME2/home/sstatthoudakis/Documents/spectre/Gates/NOR2/nor_validate/corners/corner_pin1/wire_load/nor_ff.mt9
Total time required for tran analysis `transient10': CPU = 162.934 ms, elapsed = 279.454 ms, util. = 58.3%.
Time accumulated: CPU = 2.62404 s, elapsed = 7.3731 s.
Peak resident memory used = 152 Mbytes.


Notice from spectre.
    5 notices suppressed.


**************************
Alter Group `altergroup10'
**************************
Time for altergroup10: CPU = 6.952 ms, elapsed = 7.92599 ms.
Time accumulated: CPU = 2.63111 s, elapsed = 7.38249 s.
Peak resident memory used = 152 Mbytes.


******************************************************
Transient Analysis `transient11': time = (0 s -> 2 ns)
******************************************************

Notice from spectre during IC analysis `timeSweep_cloned_10', during transient analysis `transient11'.
    Bad pivoting is found during DC analysis. Option dc_pivot_check=yes is recommended for possible improvement of convergence.

DC simulation time: CPU = 4.359 ms, elapsed = 5.0869 ms.

Notice from spectre during transient analysis `transient11'.
    No outputs were found. Loosening output filter criterion to `allpub'.


Opening the PSFXL file ./nor_ff.raw/transient11.tran.tran ...
Important parameter values:
    start = 0 s
    outputstart = 0 s
    stop = 2 ns
    step = 100 fs
    maxstep = 40 ps
    ic = all
    useprevic = no
    skipdc = no
    reltol = 1e-03
    abstol(V) = 1 uV
    abstol(I) = 1 pA
    temp = 50 C
    tnom = 27 C
    tempeffects = all
    errpreset = moderate
    method = traponly
    lteratio = 3.5
    relref = sigglobal
    cmin = 0 F
    gmin = 1 pS


Output and IC/nodeset summary:
                 probe  2       
                 save   3       (current)
                 save   165     (voltage)

......9......8......7.....

Notice from spectre at time = 793.669 ps during transient analysis `transient11'.
    Found trapezoidal ringing on node VGND:p.

......9......8......7......6

Notice from spectre at time = 833.669 ps during transient analysis `transient11'.
    Found trapezoidal ringing on node VGND:p.

......9......8......7......6.

Notice from spectre at time = 873.669 ps during transient analysis `transient11'.
    Found trapezoidal ringing on node VGND:p.

......9......8......7......6...

Notice from spectre at time = 913.669 ps during transient analysis `transient11'.
    Found trapezoidal ringing on node VGND:p.

......9......8......7......6....

Notice from spectre at time = 953.669 ps during transient analysis `transient11'.
    Found trapezoidal ringing on node VGND:p.
        Further occurrences of this notice will be suppressed.

......9......8......7......6......5......4......3......2......1......0
Number of accepted tran steps =             195

Notice from spectre during transient analysis `transient11'.
    Trapezoidal ringing is detected during tran analysis.
        Please use method=trap for better results and performance.


Maximum value achieved for any signal of each quantity: 
V: V(nor10.1:Q) = 1.078 V
I: I(VGND:p) = 54.93 uA
If your circuit contains signals of the same quantity that are vastly different in size (such as high voltage circuitry combined with low voltage control circuitry), you should consider specifying global option `bin_relref=yes'.

~~~~~~~~~~~~~~~~~~~~~~~~~~~~~~~~~
Post-Transient Simulation Summary
~~~~~~~~~~~~~~~~~~~~~~~~~~~~~~~~~
   -   To further speed up simulation, consider
          add ++aps on command line
~~~~~~~~~~~~~~~~~~~~~~~~~~~~~~~~~


During simulation, the CPU load for active processors is :
         0 (100.0 %)     1 (19.5 %)      2 (5.6 %)       3 (4.6 %)
         4 (2.5 %)       5 (10.3 %)      6 (11.8 %)      7 (99.9 %)
         8 (18.9 %)      9 (1.7 %)      10 (1.2 %)      11 (1.4 %)
        Total: 277.5%
Initial condition solution time: CPU = 4.419 ms, elapsed = 5.4791 ms.
Intrinsic tran analysis time:    CPU = 145.114 ms, elapsed = 245.642 ms.
Opening mt file:  /CASNFSHOME2/home/sstatthoudakis/Documents/spectre/Gates/NOR2/nor_validate/corners/corner_pin1/wire_load/nor_ff.mt10
Total time required for tran analysis `transient11': CPU = 152.786 ms, elapsed = 267.788 ms, util. = 57.1%.
Time accumulated: CPU = 2.78895 s, elapsed = 7.68364 s.
Peak resident memory used = 152 Mbytes.


Notice from spectre.
    6 notices suppressed.


**************************
Alter Group `altergroup11'
**************************
Time for altergroup11: CPU = 6.981 ms, elapsed = 7.90787 ms.
Time accumulated: CPU = 2.79606 s, elapsed = 7.69277 s.
Peak resident memory used = 152 Mbytes.


******************************************************
Transient Analysis `transient12': time = (0 s -> 2 ns)
******************************************************
DC simulation time: CPU = 4.328 ms, elapsed = 4.33016 ms.

Notice from spectre during transient analysis `transient12'.
    No outputs were found. Loosening output filter criterion to `allpub'.


Opening the PSFXL file ./nor_ff.raw/transient12.tran.tran ...
Important parameter values:
    start = 0 s
    outputstart = 0 s
    stop = 2 ns
    step = 100 fs
    maxstep = 40 ps
    ic = all
    useprevic = no
    skipdc = no
    reltol = 1e-03
    abstol(V) = 1 uV
    abstol(I) = 1 pA
    temp = 125 C
    tnom = 27 C
    tempeffects = all
    errpreset = moderate
    method = traponly
    lteratio = 3.5
    relref = sigglobal
    cmin = 0 F
    gmin = 1 pS


Output and IC/nodeset summary:
                 probe  2       
                 save   3       (current)
                 save   165     (voltage)

......9......8......7......

Notice from spectre at time = 805.616 ps during transient analysis `transient12'.
    Found trapezoidal ringing on node VVDD:p.

......9......8......7......6

Notice from spectre at time = 845.616 ps during transient analysis `transient12'.
    Found trapezoidal ringing on node VVDD:p.

......9......8......7......6..

Notice from spectre at time = 885.616 ps during transient analysis `transient12'.
    Found trapezoidal ringing on node VVDD:p.

......9......8......7......6...

Notice from spectre at time = 925.616 ps during transient analysis `transient12'.
    Found trapezoidal ringing on node VVDD:p.

......9......8......7......6....

Notice from spectre at time = 965.616 ps during transient analysis `transient12'.
    Found trapezoidal ringing on node VVDD:p.
        Further occurrences of this notice will be suppressed.

......9......8......7......6......5......4......3......2......1......0
Number of accepted tran steps =             182

Notice from spectre during transient analysis `transient12'.
    Trapezoidal ringing is detected during tran analysis.
        Please use method=trap for better results and performance.


Maximum value achieved for any signal of each quantity: 
V: V(nor10.2:Q) = 1.071 V
I: I(VGND:p) = 53.76 uA
If your circuit contains signals of the same quantity that are vastly different in size (such as high voltage circuitry combined with low voltage control circuitry), you should consider specifying global option `bin_relref=yes'.

~~~~~~~~~~~~~~~~~~~~~~~~~~~~~~~~~
Post-Transient Simulation Summary
~~~~~~~~~~~~~~~~~~~~~~~~~~~~~~~~~
   -   To further speed up simulation, consider
          add ++aps on command line
~~~~~~~~~~~~~~~~~~~~~~~~~~~~~~~~~


During simulation, the CPU load for active processors is :
         0 (100.0 %)     1 (18.6 %)      2 (5.4 %)       3 (4.5 %)
         4 (2.4 %)       5 (10.2 %)      6 (13.3 %)      7 (99.9 %)
         8 (18.1 %)      9 (1.7 %)      10 (1.1 %)      11 (1.4 %)
        Total: 276.6%
Initial condition solution time: CPU = 4.4 ms, elapsed = 4.82702 ms.
Intrinsic tran analysis time:    CPU = 140.616 ms, elapsed = 335.456 ms.
Opening mt file:  /CASNFSHOME2/home/sstatthoudakis/Documents/spectre/Gates/NOR2/nor_validate/corners/corner_pin1/wire_load/nor_ff.mt11
Total time required for tran analysis `transient12': CPU = 148.351 ms, elapsed = 359.535 ms, util. = 41.3%.
Time accumulated: CPU = 2.9496 s, elapsed = 8.12322 s.
Peak resident memory used = 152 Mbytes.


Notice from spectre.
    6 notices suppressed.


**************************
Alter Group `altergroup12'
**************************
Time for altergroup12: CPU = 7.354 ms, elapsed = 13.104 ms.
Time accumulated: CPU = 2.95709 s, elapsed = 8.13781 s.
Peak resident memory used = 152 Mbytes.


******************************************************
Transient Analysis `transient13': time = (0 s -> 2 ns)
******************************************************
DC simulation time: CPU = 4.442 ms, elapsed = 4.44412 ms.

Notice from spectre during transient analysis `transient13'.
    No outputs were found. Loosening output filter criterion to `allpub'.


Opening the PSFXL file ./nor_ff.raw/transient13.tran.tran ...
Important parameter values:
    start = 0 s
    outputstart = 0 s
    stop = 2 ns
    step = 100 fs
    maxstep = 40 ps
    ic = all
    useprevic = no
    skipdc = no
    reltol = 1e-03
    abstol(V) = 1 uV
    abstol(I) = 1 pA
    temp = 0 C
    tnom = 27 C
    tempeffects = all
    errpreset = moderate
    method = traponly
    lteratio = 3.5
    relref = sigglobal
    cmin = 0 F
    gmin = 1 pS


Output and IC/nodeset summary:
                 probe  2       
                 save   3       (current)
                 save   165     (voltage)

......9......8......7......6...

Notice from spectre at time = 920.203 ps during transient analysis `transient13'.
    Found trapezoidal ringing on node nor9.1:Q.

......9......8......7......6....

Notice from spectre at time = 960.203 ps during transient analysis `transient13'.
    Found trapezoidal ringing on node nor9.1:Q.

......9......8......7......6......

Notice from spectre at time = 1.0002 ns during transient analysis `transient13'.
    Found trapezoidal ringing on node nor9.1:Q.

......9......8......7......6......5

Notice from spectre at time = 1.0402 ns during transient analysis `transient13'.
    Found trapezoidal ringing on node nor9.1:Q.

......9......8......7......6......5.

Notice from spectre at time = 1.0802 ns during transient analysis `transient13'.
    Found trapezoidal ringing on node nor9.1:Q.
        Further occurrences of this notice will be suppressed.

......9......8......7......6......5......4......3......2......1......0
Number of accepted tran steps =             194

Notice from spectre during transient analysis `transient13'.
    Trapezoidal ringing is detected during tran analysis.
        Please use method=trap for better results and performance.


Maximum value achieved for any signal of each quantity: 
V: V(nor10.2:Q) = 1.093 V
I: I(VGND:p) = 59.23 uA
If your circuit contains signals of the same quantity that are vastly different in size (such as high voltage circuitry combined with low voltage control circuitry), you should consider specifying global option `bin_relref=yes'.

~~~~~~~~~~~~~~~~~~~~~~~~~~~~~~~~~
Post-Transient Simulation Summary
~~~~~~~~~~~~~~~~~~~~~~~~~~~~~~~~~
   -   To further speed up simulation, consider
          add ++aps on command line
~~~~~~~~~~~~~~~~~~~~~~~~~~~~~~~~~


During simulation, the CPU load for active processors is :
         0 (100.0 %)     1 (16.7 %)      2 (4.9 %)       3 (4.6 %)
         4 (2.2 %)       5 (11.0 %)      6 (13.1 %)      7 (99.9 %)
         8 (16.7 %)      9 (1.8 %)      10 (1.1 %)      11 (1.3 %)
        Total: 273.4%
Initial condition solution time: CPU = 4.541 ms, elapsed = 9.32693 ms.
Intrinsic tran analysis time:    CPU = 165.736 ms, elapsed = 677.068 ms.
Opening mt file:  /CASNFSHOME2/home/sstatthoudakis/Documents/spectre/Gates/NOR2/nor_validate/corners/corner_pin1/wire_load/nor_ff.mt12
Total time required for tran analysis `transient13': CPU = 175.346 ms, elapsed = 855.849 ms, util. = 20.5%.
Time accumulated: CPU = 3.13804 s, elapsed = 9.0325 s.
Peak resident memory used = 152 Mbytes.


Notice from spectre.
    2 notices suppressed.


**************************
Alter Group `altergroup13'
**************************
Time for altergroup13: CPU = 8.863 ms, elapsed = 9.68909 ms.
Time accumulated: CPU = 3.14703 s, elapsed = 9.04342 s.
Peak resident memory used = 152 Mbytes.


******************************************************
Transient Analysis `transient14': time = (0 s -> 2 ns)
******************************************************
DC simulation time: CPU = 4.417 ms, elapsed = 4.41909 ms.

Notice from spectre during transient analysis `transient14'.
    No outputs were found. Loosening output filter criterion to `allpub'.


Opening the PSFXL file ./nor_ff.raw/transient14.tran.tran ...
Important parameter values:
    start = 0 s
    outputstart = 0 s
    stop = 2 ns
    step = 100 fs
    maxstep = 40 ps
    ic = all
    useprevic = no
    skipdc = no
    reltol = 1e-03
    abstol(V) = 1 uV
    abstol(I) = 1 pA
    temp = 50 C
    tnom = 27 C
    tempeffects = all
    errpreset = moderate
    method = traponly
    lteratio = 3.5
    relref = sigglobal
    cmin = 0 F
    gmin = 1 pS


Output and IC/nodeset summary:
                 probe  2       
                 save   3       (current)
                 save   165     (voltage)

......9......8......7......

Notice from spectre at time = 807.897 ps during transient analysis `transient14'.
    Found trapezoidal ringing on node VVDD:p.

......9......8......7......6

Notice from spectre at time = 847.897 ps during transient analysis `transient14'.
    Found trapezoidal ringing on node VVDD:p.

......9......8......7......6..

Notice from spectre at time = 887.897 ps during transient analysis `transient14'.
    Found trapezoidal ringing on node VVDD:p.

......9......8......7......6...

Notice from spectre at time = 927.897 ps during transient analysis `transient14'.
    Found trapezoidal ringing on node VVDD:p.

......9......8......7......6....

Notice from spectre at time = 967.897 ps during transient analysis `transient14'.
    Found trapezoidal ringing on node VVDD:p.
        Further occurrences of this notice will be suppressed.

......9......8......7......6......5......4......3......2......1......0
Number of accepted tran steps =             192

Notice from spectre during transient analysis `transient14'.
    Trapezoidal ringing is detected during tran analysis.
        Please use method=trap for better results and performance.


Maximum value achieved for any signal of each quantity: 
V: V(nor10.1:Q) = 1.088 V
I: I(VGND:p) = 56.13 uA
If your circuit contains signals of the same quantity that are vastly different in size (such as high voltage circuitry combined with low voltage control circuitry), you should consider specifying global option `bin_relref=yes'.

~~~~~~~~~~~~~~~~~~~~~~~~~~~~~~~~~
Post-Transient Simulation Summary
~~~~~~~~~~~~~~~~~~~~~~~~~~~~~~~~~
   -   To further speed up simulation, consider
          add ++aps on command line
~~~~~~~~~~~~~~~~~~~~~~~~~~~~~~~~~


During simulation, the CPU load for active processors is :
         0 (100.0 %)     1 (16.1 %)      2 (4.8 %)       3 (4.4 %)
         4 (2.2 %)       5 (12.7 %)      6 (12.6 %)      7 (99.9 %)
         8 (16.2 %)      9 (1.8 %)      10 (1.1 %)      11 (1.3 %)
        Total: 273.1%
Initial condition solution time: CPU = 4.494 ms, elapsed = 4.88997 ms.
Intrinsic tran analysis time:    CPU = 156.163 ms, elapsed = 257.34 ms.
Opening mt file:  /CASNFSHOME2/home/sstatthoudakis/Documents/spectre/Gates/NOR2/nor_validate/corners/corner_pin1/wire_load/nor_ff.mt13
Total time required for tran analysis `transient14': CPU = 164.272 ms, elapsed = 278.868 ms, util. = 58.9%.
Time accumulated: CPU = 3.31708 s, elapsed = 9.35785 s.
Peak resident memory used = 152 Mbytes.


Notice from spectre.
    5 notices suppressed.


**************************
Alter Group `altergroup14'
**************************
Time for altergroup14: CPU = 6.977 ms, elapsed = 8.12912 ms.
Time accumulated: CPU = 3.32418 s, elapsed = 9.36728 s.
Peak resident memory used = 152 Mbytes.


******************************************************
Transient Analysis `transient15': time = (0 s -> 2 ns)
******************************************************
DC simulation time: CPU = 4.607 ms, elapsed = 4.60982 ms.

Notice from spectre during transient analysis `transient15'.
    No outputs were found. Loosening output filter criterion to `allpub'.


Opening the PSFXL file ./nor_ff.raw/transient15.tran.tran ...
Important parameter values:
    start = 0 s
    outputstart = 0 s
    stop = 2 ns
    step = 100 fs
    maxstep = 40 ps
    ic = all
    useprevic = no
    skipdc = no
    reltol = 1e-03
    abstol(V) = 1 uV
    abstol(I) = 1 pA
    temp = 125 C
    tnom = 27 C
    tempeffects = all
    errpreset = moderate
    method = traponly
    lteratio = 3.5
    relref = sigglobal
    cmin = 0 F
    gmin = 1 pS


Output and IC/nodeset summary:
                 probe  2       
                 save   3       (current)
                 save   165     (voltage)

......9......8......7......6...

Notice from spectre at time = 917.709 ps during transient analysis `transient15'.
    Found trapezoidal ringing on node nor10.1:A.

......9......8......7......6....

Notice from spectre at time = 957.709 ps during transient analysis `transient15'.
    Found trapezoidal ringing on node nor10.1:A.

......9......8......7......6......

Notice from spectre at time = 997.709 ps during transient analysis `transient15'.
    Found trapezoidal ringing on node nor10.1:A.

......9......8......7......6......5

Notice from spectre at time = 1.03771 ns during transient analysis `transient15'.
    Found trapezoidal ringing on node nor10.1:A.

......9......8......7......6......5.

Notice from spectre at time = 1.07771 ns during transient analysis `transient15'.
    Found trapezoidal ringing on node nor10.1:A.
        Further occurrences of this notice will be suppressed.

......9......8......7......6......5......4......3......2......1......0
Number of accepted tran steps =             183

Notice from spectre during transient analysis `transient15'.
    Trapezoidal ringing is detected during tran analysis.
        Please use method=trap for better results and performance.


Maximum value achieved for any signal of each quantity: 
V: V(nor10.2:Q) = 1.082 V
I: I(VVDD:p) = 55.3 uA
If your circuit contains signals of the same quantity that are vastly different in size (such as high voltage circuitry combined with low voltage control circuitry), you should consider specifying global option `bin_relref=yes'.

~~~~~~~~~~~~~~~~~~~~~~~~~~~~~~~~~
Post-Transient Simulation Summary
~~~~~~~~~~~~~~~~~~~~~~~~~~~~~~~~~
   -   To further speed up simulation, consider
          add ++aps on command line
~~~~~~~~~~~~~~~~~~~~~~~~~~~~~~~~~


During simulation, the CPU load for active processors is :
         0 (100.0 %)     1 (15.5 %)      2 (4.9 %)       3 (4.3 %)
         4 (2.1 %)       5 (14.1 %)      6 (12.1 %)      7 (99.9 %)
         8 (15.7 %)      9 (1.8 %)      10 (1.0 %)      11 (1.4 %)
        Total: 272.7%
Initial condition solution time: CPU = 4.707 ms, elapsed = 5.09 ms.
Intrinsic tran analysis time:    CPU = 169.989 ms, elapsed = 288.134 ms.
Opening mt file:  /CASNFSHOME2/home/sstatthoudakis/Documents/spectre/Gates/NOR2/nor_validate/corners/corner_pin1/wire_load/nor_ff.mt14
Total time required for tran analysis `transient15': CPU = 178.47 ms, elapsed = 310.119 ms, util. = 57.5%.
Time accumulated: CPU = 3.50794 s, elapsed = 9.71432 s.
Peak resident memory used = 153 Mbytes.


Notice from spectre.
    3 notices suppressed.


**************************
Alter Group `altergroup15'
**************************
Time for altergroup15: CPU = 6.941 ms, elapsed = 7.68018 ms.
Time accumulated: CPU = 3.515 s, elapsed = 9.72289 s.
Peak resident memory used = 153 Mbytes.


******************************************************
Transient Analysis `transient16': time = (0 s -> 2 ns)
******************************************************
DC simulation time: CPU = 4.517 ms, elapsed = 4.51899 ms.

Notice from spectre during transient analysis `transient16'.
    No outputs were found. Loosening output filter criterion to `allpub'.


Opening the PSFXL file ./nor_ff.raw/transient16.tran.tran ...
Important parameter values:
    start = 0 s
    outputstart = 0 s
    stop = 2 ns
    step = 100 fs
    maxstep = 40 ps
    ic = all
    useprevic = no
    skipdc = no
    reltol = 1e-03
    abstol(V) = 1 uV
    abstol(I) = 1 pA
    temp = 0 C
    tnom = 27 C
    tempeffects = all
    errpreset = moderate
    method = traponly
    lteratio = 3.5
    relref = sigglobal
    cmin = 0 F
    gmin = 1 pS


Output and IC/nodeset summary:
                 probe  2       
                 save   3       (current)
                 save   165     (voltage)

......9......8......7......6..

Notice from spectre at time = 907.769 ps during transient analysis `transient16'.
    Found trapezoidal ringing on node nor9.1:Q.

......9......8......7......6....

Notice from spectre at time = 947.769 ps during transient analysis `transient16'.
    Found trapezoidal ringing on node nor9.1:Q.

......9......8......7......6.....

Notice from spectre at time = 987.769 ps during transient analysis `transient16'.
    Found trapezoidal ringing on node nor9.1:Q.

......9......8......7......6......5

Notice from spectre at time = 1.02777 ns during transient analysis `transient16'.
    Found trapezoidal ringing on node nor9.1:Q.

......9......8......7......6......5.

Notice from spectre at time = 1.06777 ns during transient analysis `transient16'.
    Found trapezoidal ringing on node nor9.1:Q.
        Further occurrences of this notice will be suppressed.

......9......8......7......6......5......4......3......2......1......0
Number of accepted tran steps =             199

Notice from spectre during transient analysis `transient16'.
    Trapezoidal ringing is detected during tran analysis.
        Please use method=trap for better results and performance.


Maximum value achieved for any signal of each quantity: 
V: V(nor10.2:Q) = 1.104 V
I: I(VGND:p) = 60.34 uA
If your circuit contains signals of the same quantity that are vastly different in size (such as high voltage circuitry combined with low voltage control circuitry), you should consider specifying global option `bin_relref=yes'.

~~~~~~~~~~~~~~~~~~~~~~~~~~~~~~~~~
Post-Transient Simulation Summary
~~~~~~~~~~~~~~~~~~~~~~~~~~~~~~~~~
   -   To further speed up simulation, consider
          add ++aps on command line
~~~~~~~~~~~~~~~~~~~~~~~~~~~~~~~~~


During simulation, the CPU load for active processors is :
         0 (100.0 %)     1 (13.7 %)      2 (6.1 %)       3 (4.0 %)
         4 (2.0 %)       5 (13.7 %)      6 (10.8 %)      7 (99.9 %)
         8 (14.6 %)      9 (1.7 %)      10 (1.1 %)      11 (1.3 %)
        Total: 269.0%
Initial condition solution time: CPU = 4.598 ms, elapsed = 5.38707 ms.
Intrinsic tran analysis time:    CPU = 173.761 ms, elapsed = 1.17932 s.
Opening mt file:  /CASNFSHOME2/home/sstatthoudakis/Documents/spectre/Gates/NOR2/nor_validate/corners/corner_pin1/wire_load/nor_ff.mt15
Total time required for tran analysis `transient16': CPU = 181.641 ms, elapsed = 1.20117 s, util. = 15.1%.
Time accumulated: CPU = 3.70154 s, elapsed = 10.9567 s.
Peak resident memory used = 153 Mbytes.


Notice from spectre.
    4 notices suppressed.


**************************
Alter Group `altergroup16'
**************************
Time for altergroup16: CPU = 6.712 ms, elapsed = 7.58696 ms.
Time accumulated: CPU = 3.70837 s, elapsed = 10.9659 s.
Peak resident memory used = 153 Mbytes.


******************************************************
Transient Analysis `transient17': time = (0 s -> 2 ns)
******************************************************
DC simulation time: CPU = 4.204 ms, elapsed = 4.20594 ms.

Notice from spectre during transient analysis `transient17'.
    No outputs were found. Loosening output filter criterion to `allpub'.


Opening the PSFXL file ./nor_ff.raw/transient17.tran.tran ...
Important parameter values:
    start = 0 s
    outputstart = 0 s
    stop = 2 ns
    step = 100 fs
    maxstep = 40 ps
    ic = all
    useprevic = no
    skipdc = no
    reltol = 1e-03
    abstol(V) = 1 uV
    abstol(I) = 1 pA
    temp = 50 C
    tnom = 27 C
    tempeffects = all
    errpreset = moderate
    method = traponly
    lteratio = 3.5
    relref = sigglobal
    cmin = 0 F
    gmin = 1 pS


Output and IC/nodeset summary:
                 probe  2       
                 save   3       (current)
                 save   165     (voltage)

......9......8......7......6.

Notice from spectre at time = 878.992 ps during transient analysis `transient17'.
    Found trapezoidal ringing on node VVDD:p.

......9......8......7......6...

Notice from spectre at time = 918.992 ps during transient analysis `transient17'.
    Found trapezoidal ringing on node VVDD:p.

......9......8......7......6....

Notice from spectre at time = 958.992 ps during transient analysis `transient17'.
    Found trapezoidal ringing on node VVDD:p.

......9......8......7......6......

Notice from spectre at time = 998.992 ps during transient analysis `transient17'.
    Found trapezoidal ringing on node VVDD:p.

......9......8......7......6......5

Notice from spectre at time = 1.03899 ns during transient analysis `transient17'.
    Found trapezoidal ringing on node VVDD:p.
        Further occurrences of this notice will be suppressed.

......9......8......7......6......5......4......3......2......1......0
Number of accepted tran steps =             198

Notice from spectre during transient analysis `transient17'.
    Trapezoidal ringing is detected during tran analysis.
        Please use method=trap for better results and performance.


Maximum value achieved for any signal of each quantity: 
V: V(nor10.1:Q) = 1.099 V
I: I(VGND:p) = 57.41 uA
If your circuit contains signals of the same quantity that are vastly different in size (such as high voltage circuitry combined with low voltage control circuitry), you should consider specifying global option `bin_relref=yes'.

~~~~~~~~~~~~~~~~~~~~~~~~~~~~~~~~~
Post-Transient Simulation Summary
~~~~~~~~~~~~~~~~~~~~~~~~~~~~~~~~~
   -   To further speed up simulation, consider
          add ++aps on command line
~~~~~~~~~~~~~~~~~~~~~~~~~~~~~~~~~


During simulation, the CPU load for active processors is :
         0 (100.0 %)     1 (13.3 %)      2 (7.4 %)       3 (3.9 %)
         4 (2.1 %)       5 (13.4 %)      6 (10.6 %)      7 (99.9 %)
         8 (14.3 %)      9 (1.6 %)      10 (1.1 %)      11 (1.3 %)
        Total: 268.9%
Initial condition solution time: CPU = 4.279 ms, elapsed = 4.56405 ms.
Intrinsic tran analysis time:    CPU = 148.483 ms, elapsed = 260.902 ms.
Opening mt file:  /CASNFSHOME2/home/sstatthoudakis/Documents/spectre/Gates/NOR2/nor_validate/corners/corner_pin1/wire_load/nor_ff.mt16
Total time required for tran analysis `transient17': CPU = 156.015 ms, elapsed = 281.123 ms, util. = 55.5%.
Time accumulated: CPU = 3.8696 s, elapsed = 11.2853 s.
Peak resident memory used = 153 Mbytes.


Notice from spectre.
    3 notices suppressed.


**************************
Alter Group `altergroup17'
**************************
Time for altergroup17: CPU = 6.532 ms, elapsed = 7.65491 ms.
Time accumulated: CPU = 3.87625 s, elapsed = 11.2945 s.
Peak resident memory used = 153 Mbytes.


******************************************************
Transient Analysis `transient18': time = (0 s -> 2 ns)
******************************************************
DC simulation time: CPU = 4.192 ms, elapsed = 4.19402 ms.

Notice from spectre during transient analysis `transient18'.
    No outputs were found. Loosening output filter criterion to `allpub'.


Opening the PSFXL file ./nor_ff.raw/transient18.tran.tran ...
Important parameter values:
    start = 0 s
    outputstart = 0 s
    stop = 2 ns
    step = 100 fs
    maxstep = 40 ps
    ic = all
    useprevic = no
    skipdc = no
    reltol = 1e-03
    abstol(V) = 1 uV
    abstol(I) = 1 pA
    temp = 125 C
    tnom = 27 C
    tempeffects = all
    errpreset = moderate
    method = traponly
    lteratio = 3.5
    relref = sigglobal
    cmin = 0 F
    gmin = 1 pS


Output and IC/nodeset summary:
                 probe  2       
                 save   3       (current)
                 save   165     (voltage)

......9......8......7....

Notice from spectre at time = 747.162 ps during transient analysis `transient18'.
    Found trapezoidal ringing on node VGND:p.

......9......8......7.....

Notice from spectre at time = 787.162 ps during transient analysis `transient18'.
    Found trapezoidal ringing on node VGND:p.

......9......8......7......6

Notice from spectre at time = 827.162 ps during transient analysis `transient18'.
    Found trapezoidal ringing on node VGND:p.

......9......8......7......6.

Notice from spectre at time = 867.162 ps during transient analysis `transient18'.
    Found trapezoidal ringing on node VGND:p.

......9......8......7......6..

Notice from spectre at time = 907.162 ps during transient analysis `transient18'.
    Found trapezoidal ringing on node VGND:p.
        Further occurrences of this notice will be suppressed.

......9......8......7......6......5......4......3......2......1......0
Number of accepted tran steps =             185

Notice from spectre during transient analysis `transient18'.
    Trapezoidal ringing is detected during tran analysis.
        Please use method=trap for better results and performance.


[...]
Total time required for tran analysis `transient142': CPU = 155.25 ms, elapsed = 277.064 ms, util. = 56%.
Time accumulated: CPU = 25.0052 s, elapsed = 64.3421 s (1m  4.3s).
Peak resident memory used = 156 Mbytes.


Notice from spectre.
    17 notices suppressed.


***************************
Alter Group `altergroup142'
***************************
Time for altergroup142: CPU = 9.565 ms, elapsed = 10.505 ms.
Time accumulated: CPU = 25.0149 s, elapsed = 64.354 s (1m  4.4s).
Peak resident memory used = 156 Mbytes.


*******************************************************
Transient Analysis `transient143': time = (0 s -> 2 ns)
*******************************************************
DC simulation time: CPU = 5.276 ms, elapsed = 5.27811 ms.

Notice from spectre during transient analysis `transient143'.
    No outputs were found. Loosening output filter criterion to `allpub'.


Opening the PSFXL file ./nor_ff.raw/transient143.tran.tran ...
Important parameter values:
    start = 0 s
    outputstart = 0 s
    stop = 2 ns
    step = 100 fs
    maxstep = 40 ps
    ic = all
    useprevic = no
    skipdc = no
    reltol = 1e-03
    abstol(V) = 1 uV
    abstol(I) = 1 pA
    temp = 50 C
    tnom = 27 C
    tempeffects = all
    errpreset = moderate
    method = traponly
    lteratio = 3.5
    relref = sigglobal
    cmin = 0 F
    gmin = 1 pS


Output and IC/nodeset summary:
                 probe  2       
                 save   3       (current)
                 save   165     (voltage)

......9......8.....

Notice from spectre at time = 578.949 ps during transient analysis `transient143'.
    Found trapezoidal ringing on node VGND:p.

......9......8......

Notice from spectre at time = 618.949 ps during transient analysis `transient143'.
    Found trapezoidal ringing on node VGND:p.

......9......8......7.

Notice from spectre at time = 658.949 ps during transient analysis `transient143'.
    Found trapezoidal ringing on node VGND:p.

......9......8......7..

Notice from spectre at time = 698.949 ps during transient analysis `transient143'.
    Found trapezoidal ringing on node VGND:p.

......9......8......7...

Notice from spectre at time = 738.949 ps during transient analysis `transient143'.
    Found trapezoidal ringing on node VGND:p.
        Further occurrences of this notice will be suppressed.

......9......8......7......6......5......4......3......2......1......0
Number of accepted tran steps =             194

Notice from spectre during transient analysis `transient143'.
    Trapezoidal ringing is detected during tran analysis.
        Please use method=trap for better results and performance.


Maximum value achieved for any signal of each quantity: 
V: V(nor10.1:Q) = 1.546 V
I: I(VGND:p) = 142.7 uA
If your circuit contains signals of the same quantity that are vastly different in size (such as high voltage circuitry combined with low voltage control circuitry), you should consider specifying global option `bin_relref=yes'.

~~~~~~~~~~~~~~~~~~~~~~~~~~~~~~~~~
Post-Transient Simulation Summary
~~~~~~~~~~~~~~~~~~~~~~~~~~~~~~~~~
   -   To further speed up simulation, consider
          add ++aps on command line
~~~~~~~~~~~~~~~~~~~~~~~~~~~~~~~~~


During simulation, the CPU load for active processors is :
         0 (100.0 %)     1 (18.4 %)      2 (9.6 %)       3 (5.3 %)
         4 (2.9 %)       5 (17.2 %)      6 (27.6 %)      7 (78.0 %)
         8 (8.5 %)       9 (5.7 %)      10 (1.2 %)      11 (1.6 %)
        Total: 276.1%
Initial condition solution time: CPU = 5.348 ms, elapsed = 6.006 ms.
Intrinsic tran analysis time:    CPU = 137.905 ms, elapsed = 239.408 ms.
Opening mt file:  /CASNFSHOME2/home/sstatthoudakis/Documents/spectre/Gates/NOR2/nor_validate/corners/corner_pin1/wire_load/nor_ff.mt142
Total time required for tran analysis `transient143': CPU = 146.382 ms, elapsed = 263.877 ms, util. = 55.5%.
Time accumulated: CPU = 25.1659 s, elapsed = 64.6579 s (1m  4.7s).
Peak resident memory used = 156 Mbytes.


Notice from spectre.
    19 notices suppressed.


***************************
Alter Group `altergroup143'
***************************
Time for altergroup143: CPU = 7.838 ms, elapsed = 9.15289 ms.
Time accumulated: CPU = 25.1739 s, elapsed = 64.6688 s (1m  4.7s).
Peak resident memory used = 156 Mbytes.


*******************************************************
Transient Analysis `transient144': time = (0 s -> 2 ns)
*******************************************************
DC simulation time: CPU = 5.322 ms, elapsed = 5.32317 ms.

Notice from spectre during transient analysis `transient144'.
    No outputs were found. Loosening output filter criterion to `allpub'.


Opening the PSFXL file ./nor_ff.raw/transient144.tran.tran ...
Important parameter values:
    start = 0 s
    outputstart = 0 s
    stop = 2 ns
    step = 100 fs
    maxstep = 40 ps
    ic = all
    useprevic = no
    skipdc = no
    reltol = 1e-03
    abstol(V) = 1 uV
    abstol(I) = 1 pA
    temp = 125 C
    tnom = 27 C
    tempeffects = all
    errpreset = moderate
    method = traponly
    lteratio = 3.5
    relref = sigglobal
    cmin = 0 F
    gmin = 1 pS


Output and IC/nodeset summary:
                 probe  2       
                 save   3       (current)
                 save   165     (voltage)

......9......8......7..

Notice from spectre at time = 690.461 ps during transient analysis `transient144'.
    Found trapezoidal ringing on node nor10.1:A.

......9......8......7...

Notice from spectre at time = 730.461 ps during transient analysis `transient144'.
    Found trapezoidal ringing on node nor10.1:A.

......9......8......7.....

Notice from spectre at time = 770.461 ps during transient analysis `transient144'.
    Found trapezoidal ringing on node nor10.1:A.

......9......8......7......

Notice from spectre at time = 810.461 ps during transient analysis `transient144'.
    Found trapezoidal ringing on node nor10.1:A.

......9......8......7......6

Notice from spectre at time = 850.461 ps during transient analysis `transient144'.
    Found trapezoidal ringing on node nor10.1:A.
        Further occurrences of this notice will be suppressed.

......9......8......7......6......5......4......3......2......1......0
Number of accepted tran steps =             188

Notice from spectre during transient analysis `transient144'.
    Trapezoidal ringing is detected during tran analysis.
        Please use method=trap for better results and performance.


Maximum value achieved for any signal of each quantity: 
V: V(nor10.1:Q) = 1.536 V
I: I(VGND:p) = 134.6 uA
If your circuit contains signals of the same quantity that are vastly different in size (such as high voltage circuitry combined with low voltage control circuitry), you should consider specifying global option `bin_relref=yes'.

~~~~~~~~~~~~~~~~~~~~~~~~~~~~~~~~~
Post-Transient Simulation Summary
~~~~~~~~~~~~~~~~~~~~~~~~~~~~~~~~~
   -   To further speed up simulation, consider
          add ++aps on command line
~~~~~~~~~~~~~~~~~~~~~~~~~~~~~~~~~


During simulation, the CPU load for active processors is :
         0 (100.0 %)     1 (18.6 %)      2 (9.6 %)       3 (5.4 %)
         4 (2.9 %)       5 (17.2 %)      6 (27.9 %)      7 (77.6 %)
         8 (8.5 %)       9 (5.7 %)      10 (1.2 %)      11 (1.6 %)
        Total: 276.0%
Initial condition solution time: CPU = 5.386 ms, elapsed = 6.03294 ms.
Intrinsic tran analysis time:    CPU = 135.764 ms, elapsed = 247.553 ms.
Opening mt file:  /CASNFSHOME2/home/sstatthoudakis/Documents/spectre/Gates/NOR2/nor_validate/corners/corner_pin1/wire_load/nor_ff.mt143
Total time required for tran analysis `transient144': CPU = 144.209 ms, elapsed = 270.116 ms, util. = 53.4%.
Time accumulated: CPU = 25.3231 s, elapsed = 64.9715 s (1m  5.0s).
Peak resident memory used = 156 Mbytes.


Notice from spectre.
    12 notices suppressed.


***************************
Alter Group `altergroup144'
***************************
Time for altergroup144: CPU = 7.973 ms, elapsed = 8.83698 ms.
Time accumulated: CPU = 25.3312 s, elapsed = 64.9815 s (1m  5.0s).
Peak resident memory used = 156 Mbytes.


*******************************************************
Transient Analysis `transient145': time = (0 s -> 2 ns)
*******************************************************

Notice from spectre during IC analysis `timeSweep_cloned_144', during transient analysis `transient145'.
    Bad pivoting is found during DC analysis. Option dc_pivot_check=yes is recommended for possible improvement of convergence.

DC simulation time: CPU = 5.13 ms, elapsed = 5.99909 ms.

Notice from spectre during transient analysis `transient145'.
    No outputs were found. Loosening output filter criterion to `allpub'.


Opening the PSFXL file ./nor_ff.raw/transient145.tran.tran ...
Important parameter values:
    start = 0 s
    outputstart = 0 s
    stop = 2 ns
    step = 100 fs
    maxstep = 40 ps
    ic = all
    useprevic = no
    skipdc = no
    reltol = 1e-03
    abstol(V) = 1 uV
    abstol(I) = 1 pA
    temp = 0 C
    tnom = 27 C
    tempeffects = all
    errpreset = moderate
    method = traponly
    lteratio = 3.5
    relref = sigglobal
    cmin = 0 F
    gmin = 1 pS


Output and IC/nodeset summary:
                 probe  2       
                 save   3       (current)
                 save   165     (voltage)

......9......8...

Notice from spectre at time = 537.128 ps during transient analysis `transient145'.
    Found trapezoidal ringing on node VVDD:p.

......9......8.....

Notice from spectre at time = 577.128 ps during transient analysis `transient145'.
    Found trapezoidal ringing on node VVDD:p.

......9......8......

Notice from spectre at time = 617.128 ps during transient analysis `transient145'.
    Found trapezoidal ringing on node VVDD:p.

......9......8......7.

Notice from spectre at time = 657.128 ps during transient analysis `transient145'.
    Found trapezoidal ringing on node VVDD:p.

......9......8......7..

Notice from spectre at time = 697.128 ps during transient analysis `transient145'.
    Found trapezoidal ringing on node VVDD:p.
        Further occurrences of this notice will be suppressed.

......9......8......7......6......5......4......3......2......1......0
Number of accepted tran steps =             198

Notice from spectre during transient analysis `transient145'.
    Trapezoidal ringing is detected during tran analysis.
        Please use method=trap for better results and performance.


Maximum value achieved for any signal of each quantity: 
V: V(nor10.1:Q) = 1.563 V
I: I(VGND:p) = 153.2 uA
If your circuit contains signals of the same quantity that are vastly different in size (such as high voltage circuitry combined with low voltage control circuitry), you should consider specifying global option `bin_relref=yes'.

~~~~~~~~~~~~~~~~~~~~~~~~~~~~~~~~~
Post-Transient Simulation Summary
~~~~~~~~~~~~~~~~~~~~~~~~~~~~~~~~~
   -   To further speed up simulation, consider
          add ++aps on command line
~~~~~~~~~~~~~~~~~~~~~~~~~~~~~~~~~


During simulation, the CPU load for active processors is :
         0 (100.0 %)     1 (18.8 %)      2 (9.6 %)       3 (5.3 %)
         4 (2.9 %)       5 (17.2 %)      6 (28.3 %)      7 (77.3 %)
         8 (8.4 %)       9 (5.6 %)      10 (1.2 %)      11 (1.6 %)
        Total: 276.2%
Initial condition solution time: CPU = 5.187 ms, elapsed = 6.38485 ms.
Intrinsic tran analysis time:    CPU = 147.572 ms, elapsed = 229.633 ms.
Opening mt file:  /CASNFSHOME2/home/sstatthoudakis/Documents/spectre/Gates/NOR2/nor_validate/corners/corner_pin1/wire_load/nor_ff.mt144
Total time required for tran analysis `transient145': CPU = 155.954 ms, elapsed = 253.852 ms, util. = 61.4%.
Time accumulated: CPU = 25.4922 s, elapsed = 65.2712 s (1m  5.3s).
Peak resident memory used = 156 Mbytes.


Notice from spectre.
    21 notices suppressed.


***************************
Alter Group `altergroup145'
***************************
Time for altergroup145: CPU = 7.59 ms, elapsed = 8.66318 ms.
Time accumulated: CPU = 25.4999 s, elapsed = 65.2812 s (1m  5.3s).
Peak resident memory used = 156 Mbytes.


*******************************************************
Transient Analysis `transient146': time = (0 s -> 2 ns)
*******************************************************
DC simulation time: CPU = 5.103 ms, elapsed = 5.10621 ms.

Notice from spectre during transient analysis `transient146'.
    No outputs were found. Loosening output filter criterion to `allpub'.


Opening the PSFXL file ./nor_ff.raw/transient146.tran.tran ...
Important parameter values:
    start = 0 s
    outputstart = 0 s
    stop = 2 ns
    step = 100 fs
    maxstep = 40 ps
    ic = all
    useprevic = no
    skipdc = no
    reltol = 1e-03
    abstol(V) = 1 uV
    abstol(I) = 1 pA
    temp = 50 C
    tnom = 27 C
    tempeffects = all
    errpreset = moderate
    method = traponly
    lteratio = 3.5
    relref = sigglobal
    cmin = 0 F
    gmin = 1 pS


Output and IC/nodeset summary:
                 probe  2       
                 save   3       (current)
                 save   165     (voltage)

......9......8....

Notice from spectre at time = 558.247 ps during transient analysis `transient146'.
    Found trapezoidal ringing on node VGND:p.

......9......8......

Notice from spectre at time = 598.247 ps during transient analysis `transient146'.
    Found trapezoidal ringing on node VGND:p.

......9......8......7

Notice from spectre at time = 638.247 ps during transient analysis `transient146'.
    Found trapezoidal ringing on node VGND:p.

......9......8......7.

Notice from spectre at time = 678.247 ps during transient analysis `transient146'.
    Found trapezoidal ringing on node VGND:p.

......9......8......7...

Notice from spectre at time = 718.247 ps during transient analysis `transient146'.
    Found trapezoidal ringing on node VGND:p.
        Further occurrences of this notice will be suppressed.

......9......8......7......6......5......4......3......2......1......0
Number of accepted tran steps =             189

Notice from spectre during transient analysis `transient146'.
    Trapezoidal ringing is detected during tran analysis.
        Please use method=trap for better results and performance.


Maximum value achieved for any signal of each quantity: 
V: V(nor10.2:Q) = 1.557 V
I: I(VGND:p) = 143.5 uA
If your circuit contains signals of the same quantity that are vastly different in size (such as high voltage circuitry combined with low voltage control circuitry), you should consider specifying global option `bin_relref=yes'.

~~~~~~~~~~~~~~~~~~~~~~~~~~~~~~~~~
Post-Transient Simulation Summary
~~~~~~~~~~~~~~~~~~~~~~~~~~~~~~~~~
   -   To further speed up simulation, consider
          add ++aps on command line
~~~~~~~~~~~~~~~~~~~~~~~~~~~~~~~~~


During simulation, the CPU load for active processors is :
         0 (100.0 %)     1 (18.9 %)      2 (9.5 %)       3 (5.3 %)
         4 (2.8 %)       5 (17.1 %)      6 (28.6 %)      7 (77.0 %)
         8 (8.4 %)       9 (5.6 %)      10 (1.2 %)      11 (1.7 %)
        Total: 276.2%
Initial condition solution time: CPU = 5.175 ms, elapsed = 5.60594 ms.
Intrinsic tran analysis time:    CPU = 154.036 ms, elapsed = 238.353 ms.
Opening mt file:  /CASNFSHOME2/home/sstatthoudakis/Documents/spectre/Gates/NOR2/nor_validate/corners/corner_pin1/wire_load/nor_ff.mt145
Total time required for tran analysis `transient146': CPU = 162.379 ms, elapsed = 259.286 ms, util. = 62.6%.
Time accumulated: CPU = 25.6669 s, elapsed = 65.5719 s (1m  5.6s).
Peak resident memory used = 156 Mbytes.


Notice from spectre.
    16 notices suppressed.


***************************
Alter Group `altergroup146'
***************************
Time for altergroup146: CPU = 7.908 ms, elapsed = 8.90493 ms.
Time accumulated: CPU = 25.6749 s, elapsed = 65.5824 s (1m  5.6s).
Peak resident memory used = 156 Mbytes.


*******************************************************
Transient Analysis `transient147': time = (0 s -> 2 ns)
*******************************************************
DC simulation time: CPU = 5.525 ms, elapsed = 5.52583 ms.

Notice from spectre during transient analysis `transient147'.
    No outputs were found. Loosening output filter criterion to `allpub'.


Opening the PSFXL file ./nor_ff.raw/transient147.tran.tran ...
Important parameter values:
    start = 0 s
    outputstart = 0 s
    stop = 2 ns
    step = 100 fs
    maxstep = 40 ps
    ic = all
    useprevic = no
    skipdc = no
    reltol = 1e-03
    abstol(V) = 1 uV
    abstol(I) = 1 pA
    temp = 125 C
    tnom = 27 C
    tempeffects = all
    errpreset = moderate
    method = traponly
    lteratio = 3.5
    relref = sigglobal
    cmin = 0 F
    gmin = 1 pS


Output and IC/nodeset summary:
                 probe  2       
                 save   3       (current)
                 save   165     (voltage)

......9......8...

Notice from spectre at time = 536.992 ps during transient analysis `transient147'.
    Found trapezoidal ringing on node VGND:p.

......9......8.....

Notice from spectre at time = 576.992 ps during transient analysis `transient147'.
    Found trapezoidal ringing on node VGND:p.

......9......8......

Notice from spectre at time = 616.992 ps during transient analysis `transient147'.
    Found trapezoidal ringing on node VGND:p.

......9......8......7.

Notice from spectre at time = 656.992 ps during transient analysis `transient147'.
    Found trapezoidal ringing on node VGND:p.

......9......8......7..

Notice from spectre at time = 696.992 ps during transient analysis `transient147'.
    Found trapezoidal ringing on node VGND:p.
        Further occurrences of this notice will be suppressed.

......9......8......7......6......5......4......3......2......1......0
Number of accepted tran steps =             187

Notice from spectre during transient analysis `transient147'.
    Trapezoidal ringing is detected during tran analysis.
        Please use method=trap for better results and performance.


Maximum value achieved for any signal of each quantity: 
V: V(nor10.1:Q) = 1.548 V
I: I(VGND:p) = 136.4 uA
If your circuit contains signals of the same quantity that are vastly different in size (such as high voltage circuitry combined with low voltage control circuitry), you should consider specifying global option `bin_relref=yes'.

~~~~~~~~~~~~~~~~~~~~~~~~~~~~~~~~~
Post-Transient Simulation Summary
~~~~~~~~~~~~~~~~~~~~~~~~~~~~~~~~~
   -   To further speed up simulation, consider
          add ++aps on command line
~~~~~~~~~~~~~~~~~~~~~~~~~~~~~~~~~


During simulation, the CPU load for active processors is :
         0 (100.0 %)     1 (19.1 %)      2 (9.5 %)       3 (5.3 %)
         4 (2.8 %)       5 (17.0 %)      6 (28.9 %)      7 (76.6 %)
         8 (8.4 %)       9 (5.6 %)      10 (1.2 %)      11 (1.6 %)
        Total: 276.1%
Initial condition solution time: CPU = 5.594 ms, elapsed = 6.02412 ms.
Intrinsic tran analysis time:    CPU = 134.509 ms, elapsed = 218.405 ms.
Opening mt file:  /CASNFSHOME2/home/sstatthoudakis/Documents/spectre/Gates/NOR2/nor_validate/corners/corner_pin1/wire_load/nor_ff.mt146
Total time required for tran analysis `transient147': CPU = 143.278 ms, elapsed = 239.766 ms, util. = 59.8%.
Time accumulated: CPU = 25.8231 s, elapsed = 65.8539 s (1m  5.9s).
Peak resident memory used = 156 Mbytes.


Notice from spectre.
    17 notices suppressed.

Licensing Information:
Lic Summary:
[14:36:48.232080] Cdslmd servers:5280@10.64.82.10
[14:36:48.232122] Feature usage summary:
[14:36:48.232123] Virtuoso_Multi_mode_Simulation


Aggregate audit (2:36:48 PM, Wed Oct 29, 2025):
Time used: CPU = 25.9 s, elapsed = 65.9 s (1m  5.9s), util. = 39.2%.
Time spent in licensing: elapsed = 40 ms.
Peak memory used = 156 Mbytes.
Simulation started at: 2:35:42 PM, Wed Oct 29, 2025, ended at: 2:36:48 PM, Wed Oct 29, 2025, with elapsed time (wall clock): 65.9 s (1m  5.9s).
spectre completes with 0 errors, 12 warnings, and 1197 notices.
